%mem=64gb
%nproc=28       
%Chk=snap_169.chk
# opt b3lyp/6-31g(d,p)  scf=(xqc, tight)  pop=min    

tetra snap_169 

2     1 
  O    1.012027254  -1.576271064  -6.229878864
  C    0.942694766  -2.723811415  -7.059589577
  H    1.145186766  -3.642812264  -6.462614483
  H    1.775497800  -2.575305187  -7.783267565
  C   -0.400364430  -2.774551465  -7.807346753
  H   -0.639389613  -1.793626862  -8.276583231
  O   -0.186823279  -3.679366202  -8.944725577
  C   -1.148210388  -4.721145492  -8.963611398
  H   -1.397127233  -4.908679618 -10.037288915
  C   -1.618933951  -3.345106771  -7.033051575
  H   -1.324258212  -3.839614974  -6.078577187
  C   -2.285536716  -4.314884167  -8.021740720
  H   -3.100922596  -3.790820535  -8.574622743
  H   -2.794416112  -5.164653750  -7.530335611
  O   -2.577050704  -2.280703512  -6.820299953
  N   -0.468906643  -5.960033284  -8.422324392
  C   -0.961881084  -7.277464211  -8.540291173
  C   -0.191293184  -8.077618095  -7.643963784
  N    0.756518949  -7.254531931  -7.025407937
  C    0.569409530  -5.991817995  -7.468104032
  N   -1.982504516  -7.730454936  -9.322689504
  C   -2.256521507  -9.073870038  -9.180557001
  N   -1.535525017  -9.940003677  -8.318274178
  C   -0.493462531  -9.470631489  -7.430348013
  N   -3.265727442  -9.591646804  -9.946163252
  H   -3.783353576  -8.979791305 -10.574444598
  H   -3.579360579 -10.548170833  -9.873141433
  O   -0.014082081 -10.232003467  -6.619331766
  H    1.153351392  -5.111912735  -7.130912229
  H   -1.829563831 -10.919462142  -8.195044982
  P   -2.590485751  -1.673552968  -5.286655621
  O   -2.932337679  -0.091578404  -5.541733501
  C   -1.946771193   0.684127981  -6.256126070
  H   -2.490168045   1.644460597  -6.398194288
  H   -1.749912547   0.240368698  -7.252036171
  C   -0.658807363   0.884265939  -5.443593219
  H    0.159463272   0.160200312  -5.724841456
  O   -0.099176503   2.178199948  -5.838049448
  C   -0.033941461   3.072048936  -4.724721603
  H    0.948125119   3.600428626  -4.829786710
  C   -0.877915866   0.940394548  -3.910241617
  H   -1.965194071   0.908709632  -3.632320369
  C   -0.213464778   2.252693018  -3.453618435
  H    0.777989738   2.013734654  -2.993398329
  H   -0.773976849   2.748978177  -2.643129291
  O   -0.116425977  -0.136264838  -3.333779314
  O   -1.203961658  -1.976832891  -4.725625206
  O   -3.906364888  -2.328862894  -4.645327771
  N   -1.128311507   4.076576845  -4.968165833
  C   -1.371371195   4.677880985  -6.201223531
  C   -2.426840250   5.624925322  -6.005945926
  N   -2.840625988   5.587536249  -4.667003789
  C   -2.079978408   4.673855347  -4.062112080
  N   -0.775770919   4.497460674  -7.449336368
  C   -1.255063316   5.319390679  -8.486913962
  N   -2.217812421   6.215800305  -8.350548023
  C   -2.862625614   6.426307301  -7.111247801
  H   -0.779109474   5.201837115  -9.486455280
  N   -3.827051763   7.356244798  -7.049921819
  H   -4.089942159   7.908024590  -7.868070906
  H   -4.320903552   7.548875066  -6.177430678
  H   -2.134281433   4.389693857  -3.014481678
  P   -1.052202851  -1.305596588  -2.611205295
  O   -0.159967634  -2.678244706  -2.621532455
  C   -0.867302680  -3.935677797  -2.664316339
  H   -1.704748584  -3.926297837  -3.387893152
  H   -0.080136880  -4.623998912  -3.052662742
  C   -1.368520482  -4.312249164  -1.261737704
  H   -1.442467707  -3.446193620  -0.558985459
  O   -2.747252775  -4.750270295  -1.442008570
  C   -2.868737130  -6.159002935  -1.223411266
  H   -3.867394516  -6.282730864  -0.738671364
  C   -0.610833436  -5.492322868  -0.598215562
  H    0.254659959  -5.859749466  -1.206145478
  C   -1.671270661  -6.585808708  -0.372746133
  H   -1.280815265  -7.593046598  -0.617504825
  H   -1.951433877  -6.630635372   0.703576293
  O   -0.191410589  -4.998705750   0.693629579
  O   -2.511843399  -1.245833066  -2.994776670
  O   -0.784981752  -0.893774594  -1.055704165
  N   -2.911358868  -6.828068985  -2.578207065
  C   -1.722064172  -7.072473160  -3.319299927
  N   -1.874048268  -7.625311296  -4.612687925
  C   -3.133269129  -7.936985916  -5.230125004
  C   -4.305985720  -7.621619223  -4.405413446
  C   -4.172195622  -7.089941312  -3.163248847
  O   -0.603161315  -6.823587756  -2.899874550
  H   -0.997386952  -7.864744663  -5.090772716
  O   -3.094286431  -8.395977139  -6.354508416
  C   -5.638928784  -7.931499755  -4.993188769
  H   -6.287878287  -7.044071512  -5.044332653
  H   -5.555524596  -8.322980536  -6.021696811
  H   -6.174164362  -8.700149477  -4.412240236
  H   -5.048383310  -6.844459957  -2.544274428
  P    1.337272913  -5.415301015   1.147112451
  O    2.020123310  -3.926887862   0.980585396
  C    3.435208214  -3.892374538   0.681388106
  H    3.837997653  -3.227693133   1.478316499
  H    3.928802063  -4.887435750   0.748210094
  C    3.653440205  -3.282702605  -0.706659667
  H    4.479552275  -2.533201605  -0.666801144
  O    4.176846228  -4.346215848  -1.565009911
  C    3.552290913  -4.332040906  -2.856531388
  H    4.391098647  -4.310953577  -3.595203011
  C    2.405462844  -2.717298227  -1.433434561
  H    1.449899095  -3.095610214  -0.996485229
  C    2.610727493  -3.128517620  -2.899484656
  H    1.650930802  -3.348133973  -3.420936275
  H    3.034853909  -2.307167123  -3.509366373
  O    2.281475433  -1.314449617  -1.239911428
  O    2.001113524  -6.506375315   0.421568180
  O    1.145630723  -5.584901112   2.746635708
  N    2.838722749  -5.658371216  -3.023364669
  C    2.189539989  -5.941093007  -4.289890866
  N    1.812852540  -7.247525638  -4.565895137
  C    1.911512184  -8.226325111  -3.602804468
  C    2.481862969  -7.930798730  -2.321376101
  C    2.966382460  -6.673014781  -2.071790812
  O    1.991195537  -5.028344557  -5.087165429
  N    1.433907934  -9.463044161  -3.942867680
  H    1.548852378 -10.256662383  -3.328194663
  H    1.099803203  -9.664852373  -4.883683182
  H    0.458591376  -1.692879374  -5.397804096
  H    3.472809931  -6.413684813  -1.119913502
  H    2.521042329  -8.684549217  -1.531684022
  H    2.956901589  -0.801199461  -1.729673243
  H   -4.011039421  -2.168238771  -3.617153685
  H    0.181055543  -0.956877327  -0.742845050
  H    0.665203562  -4.862998844   3.247673468
  H    1.391976294  -7.535040812  -6.197549016
  H   -0.068718047   3.760942464  -7.579673020

