%mem=64gb
%nproc=28       
%Chk=snap_89.chk
# opt b3lyp/6-31g(d,p)  scf=(xqc, tight)  pop=min    

tetra snap_89 

2     1 
  O    2.753349007  -4.745277298  -7.575877605
  C    2.420868419  -3.551357205  -8.293739636
  H    2.962767168  -3.697178543  -9.258215726
  H    2.839464779  -2.678548571  -7.757193925
  C    0.926294810  -3.361841736  -8.556375115
  H    0.743080077  -2.356062831  -9.015704567
  O    0.537361356  -4.314299798  -9.606721201
  C   -0.661895595  -4.993471558  -9.263011295
  H   -1.260722408  -5.093316023 -10.199379439
  C   -0.064157812  -3.590143015  -7.385017031
  H    0.361190254  -4.215082686  -6.562917132
  C   -1.277638582  -4.243798340  -8.078026975
  H   -1.996553685  -3.467870814  -8.420224910
  H   -1.882451488  -4.883356858  -7.399927300
  O   -0.369236244  -2.272659943  -6.904781362
  N   -0.267938208  -6.384778246  -8.810410359
  C   -1.160898115  -7.467361788  -8.641835827
  C   -0.541902809  -8.363341912  -7.719982734
  N    0.718015169  -7.836586107  -7.383504411
  C    0.863349481  -6.651441976  -8.016242840
  N   -2.361851055  -7.683315850  -9.258296837
  C   -3.007364945  -8.826883454  -8.862881310
  N   -2.506402799  -9.714611762  -7.875221313
  C   -1.234376371  -9.512413580  -7.206757582
  N   -4.220594506  -9.110614202  -9.443853829
  H   -4.561297865  -8.513246915 -10.195019837
  H   -4.679950998 -10.002881272  -9.334035204
  O   -0.917579472 -10.282608108  -6.325566823
  H    1.775218271  -5.938460694  -7.962882278
  H   -3.072841919 -10.508348809  -7.546486372
  P   -1.060351172  -2.184632928  -5.392755043
  O   -1.863598821  -0.759428518  -5.672356370
  C   -1.203721258   0.455990610  -5.296054940
  H   -1.511839572   1.160370249  -6.099106833
  H   -0.100020821   0.371419441  -5.282985917
  C   -1.756281024   0.898536229  -3.928846450
  H   -1.113270963   0.575723772  -3.071144709
  O   -1.652123486   2.359005552  -3.878277049
  C   -2.925971380   2.967881142  -3.633758180
  H   -2.791783365   3.583047042  -2.705161039
  C   -3.252386462   0.538195110  -3.742410039
  H   -3.655736498  -0.078796698  -4.586145017
  C   -3.989791678   1.875847644  -3.564507030
  H   -4.509318164   1.870190149  -2.572799527
  H   -4.800896164   1.979718406  -4.310030626
  O   -3.496371355  -0.141226149  -2.501097805
  O   -0.044163651  -2.196498955  -4.320520484
  O   -2.186995627  -3.334913840  -5.625201540
  N   -3.159851714   3.913904564  -4.778098911
  C   -2.218936322   4.398889934  -5.676162159
  C   -2.894614801   5.340698793  -6.520217866
  N   -4.237949932   5.434434443  -6.131691989
  C   -4.390931370   4.600126532  -5.103837542
  N   -0.860537757   4.126544695  -5.834353623
  C   -0.201141010   4.841635787  -6.850497359
  N   -0.784029479   5.714489204  -7.656362029
  C   -2.157791061   6.023317880  -7.540711684
  H    0.886348495   4.646782761  -6.982841518
  N   -2.683518006   6.927626943  -8.380918725
  H   -2.115967454   7.396386849  -9.087911860
  H   -3.671531204   7.182219904  -8.327205243
  H   -5.304788431   4.435174366  -4.537428398
  P   -2.832390642  -1.644342509  -2.298659174
  O   -1.587435154  -1.098217567  -1.392148121
  C   -0.441790139  -1.985705576  -1.284566437
  H   -0.085589846  -2.279471431  -2.303804567
  H    0.321545460  -1.339686428  -0.801837947
  C   -0.902083598  -3.136016513  -0.397505111
  H   -1.106521041  -2.809039453   0.650850264
  O   -2.218648870  -3.479316128  -0.959894771
  C   -2.364135137  -4.930029380  -1.107151276
  H   -3.359004775  -5.129851909  -0.636242578
  C   -0.086482627  -4.443987789  -0.420319968
  H    0.564708325  -4.534362482  -1.338848202
  C   -1.172315208  -5.538395369  -0.370714640
  H   -0.815083143  -6.502020695  -0.801265182
  H   -1.442809339  -5.800400076   0.676163749
  O    0.755124265  -4.377117747   0.736545386
  O   -2.509897874  -2.297458198  -3.603349084
  O   -4.074746403  -2.277019174  -1.465438392
  N   -2.441200196  -5.262412314  -2.556020718
  C   -1.282140382  -5.645117990  -3.307018192
  N   -1.498873004  -6.123622651  -4.614152758
  C   -2.775732252  -6.199413816  -5.258679291
  C   -3.893895148  -5.666597595  -4.458354696
  C   -3.710227520  -5.227153333  -3.188662511
  O   -0.157655647  -5.604869538  -2.838573065
  H   -0.644003707  -6.431864296  -5.118595285
  O   -2.804707058  -6.664360701  -6.379656325
  C   -5.219240310  -5.647771438  -5.134710855
  H   -5.990791993  -5.105555246  -4.572399677
  H   -5.154140867  -5.180057915  -6.132308315
  H   -5.595199314  -6.673053500  -5.296245990
  H   -4.534410402  -4.813276211  -2.587964268
  P    1.732238393  -5.697165464   1.005738615
  O    2.876768017  -5.597362567  -0.152701896
  C    4.044090919  -4.753155832   0.036043655
  H    3.993542217  -4.140739369   0.960551909
  H    4.888333205  -5.474877790   0.121584163
  C    4.196073149  -3.878602939  -1.212274055
  H    5.122198456  -3.255783936  -1.124677258
  O    4.474054332  -4.715867906  -2.370610775
  C    3.401052491  -4.672088254  -3.321308162
  H    3.888094568  -4.418258802  -4.294209954
  C    2.950864935  -3.022679500  -1.563749062
  H    2.240086307  -2.931199932  -0.711418812
  C    2.358482154  -3.672237044  -2.818857702
  H    1.384455766  -4.183134600  -2.597861740
  H    2.061834751  -2.929905122  -3.594090007
  O    3.305891165  -1.663215019  -1.770398059
  O    1.036815114  -6.981333802   1.042404500
  O    2.507760337  -5.107689127   2.315036502
  N    2.839623193  -6.066453068  -3.452397331
  C    1.927115391  -6.338151300  -4.541185244
  N    1.421415190  -7.611733683  -4.695275243
  C    1.654899226  -8.573316560  -3.734713887
  C    2.503138601  -8.292708985  -2.611091827
  C    3.083062313  -7.054235781  -2.501302525
  O    1.631329577  -5.427183424  -5.321103270
  N    1.052015744  -9.778983695  -3.940574012
  H    1.161992071 -10.546826684  -3.294889952
  H    0.443289658  -9.935651463  -4.747004690
  H    2.512503053  -4.675117744  -6.599822008
  H    3.772315806  -6.793759541  -1.677143789
  H    2.682920142  -9.050888418  -1.848731673
  H    3.921344708  -1.549524732  -2.527242580
  H   -2.796147924  -3.524369526  -4.817158340
  H   -3.969013161  -2.353756684  -0.466228240
  H    2.135414099  -5.297239816   3.220601595
  H    1.293173270  -8.187507237  -6.603857971
  H   -0.400326093   3.469144297  -5.185708595

