%mem=64gb
%nproc=28       
%Chk=snap_196.chk
# opt b3lyp/6-31g(d,p)  scf=(xqc, tight)  pop=min    

tetra snap_196 

2     1 
  O    0.778527610  -1.928596342  -6.396876088
  C    0.820400225  -2.455945737  -7.722820162
  H    1.411231828  -3.398519096  -7.751739643
  H    1.357110805  -1.688862802  -8.315585911
  C   -0.610589422  -2.667600066  -8.243545079
  H   -1.002413761  -1.769467484  -8.779037391
  O   -0.532669801  -3.698988428  -9.280965361
  C   -1.449438349  -4.756460379  -9.028667858
  H   -1.890275558  -5.043031424 -10.015870478
  C   -1.645776121  -3.167713850  -7.203197734
  H   -1.182415473  -3.491224503  -6.239694184
  C   -2.405707608  -4.291857981  -7.927607595
  H   -3.348505849  -3.878250987  -8.362770883
  H   -2.742516790  -5.099500165  -7.254443410
  O   -2.571796368  -2.080167435  -7.033910042
  N   -0.625459170  -5.919065201  -8.529889377
  C   -0.981627311  -7.283985338  -8.572948810
  C   -0.019149203  -7.973558175  -7.774813580
  N    0.895898452  -7.037036592  -7.280822766
  C    0.516234944  -5.814175876  -7.710029082
  N   -2.041116722  -7.864700162  -9.200569228
  C   -2.129835887  -9.231778345  -9.025964118
  N   -1.177913410  -9.998119630  -8.306140973
  C   -0.102794723  -9.394507992  -7.548574930
  N   -3.177025887  -9.869498015  -9.632643929
  H   -3.863125395  -9.324847344 -10.153002251
  H   -3.381277872 -10.847986853  -9.491431387
  O    0.581740828 -10.082341029  -6.823259166
  H    1.028425668  -4.863001594  -7.469185195
  H   -1.337696575 -11.002540569  -8.142799591
  P   -2.812990842  -1.538286664  -5.498051149
  O   -2.566083394   0.084283389  -5.697784608
  C   -1.187187949   0.475755579  -5.842800737
  H   -1.272778399   1.447105280  -6.372758314
  H   -0.610621953  -0.234553366  -6.479487410
  C   -0.513862279   0.649263578  -4.471851665
  H    0.226780076  -0.160246328  -4.254650036
  O    0.323016198   1.850921994  -4.563621145
  C   -0.117836010   2.856581731  -3.652796778
  H    0.818015664   3.329430069  -3.258804033
  C   -1.490777827   0.885154339  -3.291334332
  H   -2.563209313   0.938811557  -3.614254085
  C   -1.018461087   2.187491307  -2.621348041
  H   -0.440802567   1.939117651  -1.694565806
  H   -1.857268874   2.802680187  -2.252697631
  O   -1.281268838  -0.143971113  -2.305798036
  O   -1.828900177  -2.175632203  -4.539149485
  O   -4.410403576  -1.721576778  -5.452219141
  N   -0.840463277   3.875333318  -4.495094328
  C   -0.407265226   4.326923099  -5.738619209
  C   -1.344817946   5.317697056  -6.174940964
  N   -2.356154748   5.454865881  -5.214191368
  C   -2.059791203   4.602515447  -4.232383347
  N    0.698095575   3.978627697  -6.514715128
  C    0.848028047   4.681650772  -7.725141352
  N    0.017027700   5.614349270  -8.160045435
  C   -1.126880642   5.990363240  -7.420972784
  H    1.734272089   4.431161004  -8.351168420
  N   -1.926129471   6.942765013  -7.924269432
  H   -1.722654253   7.395059767  -8.816838740
  H   -2.760364894   7.251114803  -7.421564630
  H   -2.633831869   4.450949184  -3.322338820
  P   -2.293551602  -1.454506966  -2.401245949
  O   -1.165761687  -2.609017449  -2.297958073
  C   -1.596386867  -3.980492613  -2.520618398
  H   -2.505933302  -4.061603826  -3.145316143
  H   -0.740458082  -4.398800300  -3.102288667
  C   -1.786981367  -4.626044019  -1.143133076
  H   -2.079538520  -3.880796405  -0.358193549
  O   -2.938753433  -5.508864576  -1.260608057
  C   -2.555486663  -6.879705275  -1.120984783
  H   -3.380361273  -7.341404022  -0.525024566
  C   -0.598520634  -5.501392357  -0.669547432
  H    0.258971931  -5.496386629  -1.385195454
  C   -1.178565100  -6.911610508  -0.456495367
  H   -0.504257849  -7.697013818  -0.852180156
  H   -1.274095823  -7.130059186   0.630823734
  O   -0.231239636  -4.961458789   0.618457550
  O   -3.462000182  -1.178373194  -3.315142616
  O   -2.834610068  -1.588019643  -0.864890767
  N   -2.564915926  -7.498721005  -2.497714042
  C   -1.489984030  -7.297427275  -3.406778135
  N   -1.602666801  -7.923543956  -4.671765584
  C   -2.750138335  -8.664486218  -5.119142875
  C   -3.839550897  -8.755383635  -4.139983066
  C   -3.724025895  -8.196688254  -2.908521758
  O   -0.501747706  -6.631460969  -3.142217310
  H   -0.763363302  -7.880177237  -5.262728667
  O   -2.702490246  -9.121854582  -6.244760842
  C   -5.052674556  -9.501732837  -4.572599544
  H   -4.800174696 -10.534372661  -4.868243112
  H   -5.822673597  -9.573075011  -3.791427669
  H   -5.525099197  -9.026270331  -5.448054302
  H   -4.527046228  -8.268062059  -2.159833733
  P    1.375537259  -4.999595428   0.978820281
  O    1.671670351  -3.392431820   0.804919546
  C    3.009063671  -2.996513833   0.423473398
  H    3.234963335  -2.189413108   1.158354715
  H    3.756689362  -3.810798565   0.528861144
  C    3.006987981  -2.441646598  -1.003019310
  H    3.691705642  -1.557551348  -1.077041508
  O    3.620954515  -3.446987638  -1.871888776
  C    2.918133787  -3.557503677  -3.117286735
  H    3.659650635  -3.290793603  -3.910780364
  C    1.631435890  -2.103907696  -1.615664550
  H    0.770817783  -2.496092805  -1.027571974
  C    1.686197908  -2.655929355  -3.052389236
  H    0.744831862  -3.174151853  -3.329867705
  H    1.780495937  -1.814115715  -3.768757743
  O    1.569877118  -0.672009301  -1.652983839
  O    2.230002389  -5.921498794   0.219529900
  O    1.311350569  -5.202696050   2.586389188
  N    2.578125589  -5.020337570  -3.300005937
  C    1.999094312  -5.442793569  -4.558717983
  N    1.947967879  -6.797515624  -4.842046448
  C    2.290649491  -7.728522753  -3.885813969
  C    2.801058132  -7.313401476  -2.614480381
  C    2.971703957  -5.975889729  -2.361822960
  O    1.586572105  -4.592949807  -5.351064047
  N    2.100746885  -9.041995165  -4.222295824
  H    2.420154135  -9.788358942  -3.620341156
  H    1.784921258  -9.314502089  -5.150865904
  H    0.866068513  -2.674552375  -5.734496018
  H    3.426833647  -5.602825353  -1.418169813
  H    3.049597967  -8.039695669  -1.838081285
  H    0.621113937  -0.395589455  -1.679336148
  H   -4.864165611  -1.487591257  -4.557630265
  H   -3.699679210  -1.168420483  -0.616541552
  H    0.722904584  -4.591551177   3.117146317
  H    1.609037707  -7.217798533  -6.506637040
  H    1.316445460   3.213122451  -6.212513013

