%mem=64gb
%nproc=28       
%Chk=snap_42.chk
# opt b3lyp/6-31g(d,p)  scf=(xqc, tight)  pop=min    

tetra snap_42 

2     1 
  O    1.274632975  -4.046974175  -6.627624678
  C    1.539552841  -3.400184801  -7.869987765
  H    1.954524145  -4.211021960  -8.506030617
  H    2.315838898  -2.625431764  -7.728322654
  C    0.265698233  -2.814810445  -8.503038141
  H    0.340950399  -1.719584704  -8.689713274
  O    0.162728666  -3.384086046  -9.848311311
  C   -0.988604006  -4.205564213  -9.964739609
  H   -1.316167530  -4.123415125 -11.031586428
  C   -1.058350257  -3.180027109  -7.780710433
  H   -0.894511694  -3.923304440  -6.968445191
  C   -1.965873474  -3.764418349  -8.879689439
  H   -2.649580261  -2.968016734  -9.259167835
  H   -2.649015198  -4.547053875  -8.497716953
  O   -1.646432673  -1.967057877  -7.300917219
  N   -0.504728967  -5.630983709  -9.762080852
  C    0.303030963  -6.326855985 -10.695667885
  C    0.761802422  -7.507529042 -10.042698577
  N    0.237617828  -7.509053513  -8.738198726
  C   -0.504537751  -6.383820807  -8.576319310
  N    0.582925565  -5.974392876 -11.981842187
  C    1.403899233  -6.852427364 -12.656221454
  N    1.922952031  -8.030704925 -12.075230578
  C    1.632161493  -8.450229537 -10.706349803
  N    1.722398452  -6.542061768 -13.950318288
  H    1.348510634  -5.692483751 -14.370395400
  H    2.307408634  -7.124547477 -14.531036063
  O    2.127217522  -9.471617623 -10.310067731
  H   -1.073948952  -6.106900811  -7.634004116
  H    2.546875244  -8.653024336 -12.610901336
  P   -1.580645093  -1.792503496  -5.640551260
  O   -2.097973174  -0.220929225  -5.645434238
  C   -1.044342654   0.749525275  -5.436361305
  H   -1.132220331   1.445017330  -6.299901973
  H   -0.027280483   0.298456409  -5.439776590
  C   -1.323293981   1.475876034  -4.114759814
  H   -0.439387558   1.467613807  -3.428196190
  O   -1.475668242   2.898412405  -4.427404713
  C   -2.768452446   3.364226450  -4.072500710
  H   -2.613228888   4.379372006  -3.641569365
  C   -2.626561893   1.033241431  -3.391502783
  H   -3.237231900   0.296773003  -3.973439119
  C   -3.400492088   2.337170668  -3.133533039
  H   -3.267617223   2.631603542  -2.062538555
  H   -4.492898020   2.216690202  -3.252024516
  O   -2.308468005   0.497418449  -2.102995644
  O   -0.205756972  -2.059994189  -5.144310956
  O   -2.863059584  -2.729416099  -5.319913364
  N   -3.539613991   3.493624410  -5.360556882
  C   -3.839838943   4.664123268  -6.052554254
  C   -4.488659615   4.271321496  -7.269754465
  N   -4.549527845   2.871289715  -7.338193383
  C   -3.977740529   2.417931809  -6.223757565
  N   -3.642132501   6.013465247  -5.752919140
  C   -4.114884899   6.941172389  -6.704938325
  N   -4.724416153   6.618023651  -7.831136826
  C   -4.949105687   5.269489831  -8.185514918
  H   -3.957660928   8.020422042  -6.476786419
  N   -5.571978063   5.014662683  -9.347065713
  H   -5.881851004   5.768122110  -9.962159077
  H   -5.756111139   4.056411076  -9.645906600
  H   -3.820254585   1.368338236  -5.956532050
  P   -1.730190271  -1.064667950  -2.107532032
  O   -0.178194294  -0.609891683  -1.881524659
  C    0.847856212  -1.635001660  -1.977142401
  H    0.793422011  -2.154863665  -2.966950604
  H    1.786953087  -1.050248759  -1.915656715
  C    0.606223812  -2.539977015  -0.771918968
  H    0.638607125  -1.984777696   0.198417062
  O   -0.807758067  -2.906327227  -0.945196023
  C   -0.958538750  -4.347737211  -1.125829822
  H   -1.839978578  -4.594481227  -0.480691881
  C    1.413048092  -3.851645739  -0.674180396
  H    2.170802154  -3.966409023  -1.490370480
  C    0.359615538  -4.966447159  -0.671080726
  H    0.696018341  -5.804442071  -1.335652276
  H    0.200801861  -5.445729222   0.331703252
  O    2.177634549  -3.706274125   0.537499507
  O   -2.043911413  -1.762570616  -3.396127744
  O   -2.593911904  -1.513073136  -0.814155976
  N   -1.291985929  -4.613863073  -2.550875475
  C   -0.250245144  -4.693431492  -3.529191778
  N   -0.624444198  -5.187913406  -4.800771776
  C   -1.936127576  -5.616621113  -5.155766225
  C   -2.936316080  -5.521937809  -4.092596728
  C   -2.592326888  -5.084561031  -2.852736590
  O    0.897558802  -4.352117932  -3.305652454
  H    0.140349991  -5.231495943  -5.507396170
  O   -2.097129244  -5.984557496  -6.316724413
  C   -4.318268774  -5.965276966  -4.422898468
  H   -5.088204664  -5.369928886  -3.914805660
  H   -4.520257929  -5.893326590  -5.504936923
  H   -4.471731123  -7.021256585  -4.139177052
  H   -3.313162760  -5.068117646  -2.022196606
  P    2.459523081  -5.000625776   1.518901764
  O    3.464643824  -5.873139094   0.550135071
  C    3.687852537  -7.249077738   0.967215192
  H    4.670427990  -7.239100062   1.486236302
  H    2.896855418  -7.616119474   1.657144096
  C    3.736941914  -8.124199088  -0.290837764
  H    4.632448591  -8.792119319  -0.266746726
  O    2.632162402  -9.072485358  -0.241693178
  C    1.628193634  -8.775508794  -1.225654936
  H    1.420502784  -9.752442946  -1.726966664
  C    3.610335377  -7.366590424  -1.636341167
  H    3.829655146  -6.274760892  -1.548232961
  C    2.188582368  -7.677140791  -2.136404112
  H    1.554161894  -6.760215834  -2.139813250
  H    2.195141164  -7.989338336  -3.199351036
  O    4.605029967  -7.795959262  -2.550379442
  O    1.316535411  -5.749766233   2.053025154
  O    3.429998007  -4.251570203   2.580958297
  N    0.384467645  -8.364799563  -0.476395786
  C   -0.758589087  -7.789828376  -1.207042096
  N   -1.872834162  -7.414222245  -0.479697458
  C   -1.942836605  -7.681430085   0.861259680
  C   -0.858841513  -8.300197292   1.572234422
  C    0.283556132  -8.619203843   0.886991948
  O   -0.616936495  -7.611542345  -2.406455875
  N   -3.083553367  -7.275085041   1.513801328
  H   -3.247332096  -7.533048369   2.475788359
  H   -3.886507713  -6.961544832   0.987300467
  H    1.130125981  -3.374476488  -5.888375279
  H    1.152447497  -9.087416251   1.380365660
  H   -0.924807859  -8.482008391   2.644046703
  H    4.556524019  -8.759631207  -2.734496911
  H   -3.006103626  -2.964190042  -4.328008356
  H   -2.109971028  -1.853505904   0.004956600
  H    4.094901508  -3.591848579   2.226513852
  H    0.392064183  -8.255632571  -8.065973219
  H   -3.158160911   6.311234378  -4.902265871

