%mem=64gb
%nproc=28       
%Chk=snap_3.chk
# opt b3lyp/6-31g(d,p)  scf=(xqc, tight)  pop=min    

tetra snap_3 

2     1 
  O    1.844875879  -4.483749358  -7.878893962
  C    2.057667405  -3.115770288  -8.271043237
  H    2.963593254  -3.170276951  -8.913384671
  H    2.279281203  -2.525588261  -7.352686517
  C    0.880598360  -2.509473384  -9.037318814
  H    0.999789845  -1.399013818  -9.116962824
  O    0.953311708  -2.953718465 -10.433008196
  C   -0.263698299  -3.552919762 -10.849171576
  H   -0.437058134  -3.221002424 -11.903874224
  C   -0.540289413  -2.887357181  -8.540942030
  H   -0.550383559  -3.756832244  -7.831703836
  C   -1.335486395  -3.192650521  -9.816541330
  H   -1.910296859  -2.289057356 -10.127382637
  H   -2.100700342  -3.977488535  -9.668797415
  O   -1.160163139  -1.712012947  -7.953718148
  N   -0.022426469  -5.043710386 -10.871811500
  C   -0.457302542  -5.941403863 -11.871652811
  C    0.030895571  -7.226034358 -11.503002177
  N    0.755637696  -7.082004896 -10.301190485
  C    0.716106486  -5.778961675  -9.934015578
  N   -1.211292062  -5.658076826 -12.974947848
  C   -1.486800481  -6.746968147 -13.772462207
  N   -1.038426488  -8.054096493 -13.483798972
  C   -0.234848437  -8.393846663 -12.308775467
  N   -2.252613108  -6.529927408 -14.887955383
  H   -2.557884285  -5.584810168 -15.110848519
  H   -2.464787455  -7.252930036 -15.560122208
  O    0.086250998  -9.542922532 -12.161614732
  H    1.223685941  -5.277005745  -8.988531189
  H   -1.269048670  -8.840810652 -14.109984634
  P   -0.889512309  -1.635322494  -6.334040884
  O   -1.380654472  -0.084272016  -6.050696249
  C   -0.798196507   0.517428660  -4.865049438
  H   -0.417617928   1.497833297  -5.234849787
  H    0.059986338  -0.069863433  -4.467213192
  C   -1.877587982   0.736379775  -3.798962480
  H   -1.444251668   0.675692620  -2.764295225
  O   -2.280399123   2.141567700  -3.856913751
  C   -3.617839869   2.276647166  -4.314175398
  H   -4.064757552   3.085802439  -3.690675133
  C   -3.173327415  -0.104804663  -3.953187905
  H   -3.130295759  -0.875898560  -4.761528112
  C   -4.301145217   0.915949977  -4.192302230
  H   -4.993160486   0.889339644  -3.311443635
  H   -4.942101763   0.644249539  -5.050158425
  O   -3.533538423  -0.740599927  -2.715743424
  O    0.488572614  -1.982590980  -5.913652689
  O   -2.117134307  -2.496813878  -5.740069786
  N   -3.532970008   2.758345982  -5.737316997
  C   -3.535746714   4.085110063  -6.165480626
  C   -3.237995271   4.070866933  -7.567497045
  N   -3.020712138   2.748871951  -7.986995963
  C   -3.176124756   1.985172739  -6.906704159
  N   -3.788541447   5.286310695  -5.501370280
  C   -3.724278297   6.458317061  -6.282992521
  N   -3.449513795   6.485913357  -7.574941848
  C   -3.186306840   5.300789640  -8.295320744
  H   -3.924130917   7.422547154  -5.762443526
  N   -2.901471656   5.406212636  -9.603537723
  H   -2.876531992   6.312484653 -10.072001125
  H   -2.705387889   4.578654291 -10.165576364
  H   -3.041918106   0.900561949  -6.855180815
  P   -2.535735360  -1.941879638  -2.158401577
  O   -1.730584341  -0.969544635  -1.110737979
  C   -0.469492967  -1.450406755  -0.590389957
  H    0.254632639  -1.601558699  -1.425509710
  H   -0.136177683  -0.607398802   0.051342454
  C   -0.749276663  -2.720622247   0.209966144
  H   -1.329845372  -2.533071872   1.147556281
  O   -1.665457142  -3.489607238  -0.641832386
  C   -1.129738210  -4.831378390  -0.919957151
  H   -1.990274663  -5.498656089  -0.652561539
  C    0.480557018  -3.611855031   0.486721340
  H    1.431646632  -3.217417904   0.050319110
  C    0.105946494  -4.999547033  -0.042123510
  H    0.959784573  -5.473234776  -0.592872005
  H   -0.097351671  -5.704321987   0.800609055
  O    0.553237177  -3.606907397   1.932950665
  O   -1.700734592  -2.525615535  -3.252777489
  O   -3.722648684  -2.811500014  -1.487333737
  N   -0.852760926  -4.931166739  -2.374407044
  C    0.168845318  -4.133089326  -2.988074953
  N    0.315846402  -4.292316922  -4.390472020
  C   -0.439340550  -5.197634939  -5.183048990
  C   -1.385495073  -6.039222615  -4.465272266
  C   -1.560836664  -5.895922418  -3.122739748
  O    0.894299333  -3.385091853  -2.358986242
  H    0.942975574  -3.597274586  -4.862683324
  O   -0.239325042  -5.176644075  -6.402038046
  C   -2.115385722  -7.082761860  -5.240022433
  H   -1.831798246  -7.074968843  -6.303873017
  H   -1.889726460  -8.091867235  -4.856675024
  H   -3.204700978  -6.942576302  -5.195885572
  H   -2.250061922  -6.546040388  -2.555575558
  P    1.899129220  -4.233546390   2.627890248
  O    1.795433988  -5.780715554   2.070362025
  C    2.702198008  -6.734457156   2.684480756
  H    3.315343645  -6.283965141   3.492167283
  H    2.026551125  -7.492659625   3.138545974
  C    3.586566604  -7.376083081   1.608638059
  H    4.547898136  -7.724340850   2.060685776
  O    2.979630770  -8.625146684   1.167507452
  C    2.362915476  -8.478249560  -0.122124422
  H    2.647050981  -9.401531815  -0.682556770
  C    3.816837647  -6.542595655   0.321088891
  H    3.674421290  -5.443054775   0.457831615
  C    2.872272041  -7.163894575  -0.723506588
  H    2.048787806  -6.455817882  -0.983381105
  H    3.386323372  -7.329055503  -1.691627034
  O    5.177376932  -6.611403741  -0.071172716
  O    2.084024228  -3.989184996   4.051710735
  O    3.079295959  -3.674508574   1.612772346
  N    0.871002364  -8.516711382   0.116099414
  C   -0.069637788  -8.020221153  -0.897391849
  N   -1.417259292  -7.977954700  -0.569255218
  C   -1.854774229  -8.497471069   0.616529167
  C   -0.950219454  -9.065637217   1.576999887
  C    0.393561387  -9.055954123   1.301862154
  O    0.389635750  -7.624457774  -1.954119133
  N   -3.202423632  -8.395711853   0.879377396
  H   -3.609676397  -8.872954024   1.670057132
  H   -3.840695321  -8.102871979   0.152307371
  H    1.185187310  -4.523330793  -7.097537794
  H    1.137061526  -9.473123512   2.004987144
  H   -1.322178409  -9.494398503   2.504941983
  H    5.460355699  -7.528636116  -0.285793376
  H   -1.968241067  -2.924160478  -4.778070498
  H   -3.574674630  -3.185577872  -0.557150037
  H    3.829150682  -3.150763132   1.996669234
  H    1.218254075  -7.850665783  -9.825899492
  H   -3.970422585   5.315267539  -4.494964185

