%mem=64gb
%nproc=28       
%Chk=snap_1.chk
# opt b3lyp/6-31g(d,p)  scf=(xqc, tight)  pop=min    

tetra snap_1 

2     1 
  O    1.706835173  -4.595163034  -7.908434667
  C    2.075522354  -3.259143009  -8.293785377
  H    2.942318718  -3.414351172  -8.973625692
  H    2.405186979  -2.713558108  -7.381468910
  C    0.952964072  -2.503003227  -9.007343773
  H    1.169976085  -1.404748616  -9.029719849
  O    0.972822221  -2.869482967 -10.425813706
  C   -0.281281660  -3.379527700 -10.845366452
  H   -0.451811777  -2.984640576 -11.879250129
  C   -0.489241905  -2.781428797  -8.507927120
  H   -0.561048028  -3.653961002  -7.805728005
  C   -1.316909420  -3.012932674  -9.778061332
  H   -1.861055380  -2.077275680 -10.046695464
  H   -2.109797051  -3.771651518  -9.637720183
  O   -1.009437742  -1.567048891  -7.905095336
  N   -0.129122360  -4.878074448 -10.948367128
  C   -0.526698141  -5.671372915 -12.046678291
  C   -0.177000064  -7.013113618 -11.727573760
  N    0.439325576  -7.004813558 -10.458300396
  C    0.469734723  -5.727393067 -10.006767239
  N   -1.126316089  -5.249200802 -13.198408851
  C   -1.362057006  -6.247526288 -14.118091624
  N   -1.051543070  -7.604107093 -13.883503465
  C   -0.440385405  -8.095868229 -12.646638255
  N   -1.935504883  -5.878850789 -15.306402721
  H   -2.138960480  -4.896626557 -15.481183040
  H   -2.115730441  -6.527418879 -16.058795528
  O   -0.242169794  -9.277132012 -12.551941818
  H    0.956624112  -5.323490372  -9.010075222
  H   -1.247456266  -8.320709641 -14.599038667
  P   -0.751410831  -1.544073965  -6.280658258
  O   -1.184041756   0.019803261  -5.993544423
  C   -0.653974007   0.594080331  -4.771315818
  H   -0.221676903   1.564115834  -5.115125560
  H    0.155934544  -0.021786801  -4.322629490
  C   -1.788564943   0.853463209  -3.775542404
  H   -1.400120392   0.875655880  -2.719973781
  O   -2.226042542   2.238673601  -3.959452525
  C   -3.568642545   2.302924318  -4.413509878
  H   -4.032239249   3.147576076  -3.852420849
  C   -3.051683560  -0.037872465  -3.915553510
  H   -2.980864557  -0.821163918  -4.710589916
  C   -4.213763482   0.937149410  -4.180140541
  H   -4.874625688   0.952055822  -3.275402566
  H   -4.875824014   0.595410130  -4.996378675
  O   -3.386532869  -0.656932653  -2.664029881
  O    0.590463308  -1.989703701  -5.844190383
  O   -2.040034565  -2.349161041  -5.729315225
  N   -3.517898822   2.668113141  -5.873509190
  C   -3.629935963   3.940500906  -6.430957541
  C   -3.423884195   3.793943332  -7.842435234
  N   -3.143375954   2.451255298  -8.139969858
  C   -3.181907114   1.798805901  -6.979121412
  N   -3.907828132   5.192919235  -5.879920683
  C   -3.973552556   6.274085829  -6.783180172
  N   -3.803793142   6.175027784  -8.090039904
  C   -3.518858130   4.934416537  -8.699217453
  H   -4.190056420   7.278282241  -6.352006581
  N   -3.359472260   4.899961822 -10.032792970
  H   -3.440494028   5.741798458 -10.602572977
  H   -3.148507119   4.024495908 -10.510849438
  H   -2.970866878   0.737547487  -6.824671088
  P   -2.407542900  -1.886775265  -2.133484471
  O   -1.478151049  -0.907269513  -1.200388752
  C   -0.237502875  -1.448505083  -0.694474429
  H    0.445979681  -1.688919205  -1.543113164
  H    0.177897442  -0.602356373  -0.108132103
  C   -0.570191849  -2.656313063   0.177704159
  H   -1.149341909  -2.390498405   1.098215973
  O   -1.507315952  -3.446761212  -0.627159659
  C   -0.991927434  -4.807524342  -0.859670502
  H   -1.853669258  -5.456866659  -0.555536083
  C    0.627476659  -3.566595087   0.523104704
  H    1.604543514  -3.201368658   0.123515707
  C    0.249716634  -4.959938276   0.012393416
  H    1.096611400  -5.448531264  -0.535740440
  H    0.045743408  -5.654839473   0.864527472
  O    0.629373153  -3.509410480   1.970934542
  O   -1.678831784  -2.570065424  -3.243145589
  O   -3.582514382  -2.654295918  -1.333433080
  N   -0.748297814  -4.954314781  -2.314893849
  C    0.272335642  -4.194255030  -2.972548366
  N    0.341695430  -4.343073038  -4.382213641
  C   -0.515462055  -5.176598465  -5.147918313
  C   -1.473590710  -5.973339401  -4.392694581
  C   -1.554889778  -5.858021763  -3.038472778
  O    1.058048546  -3.480228192  -2.376962903
  H    0.981996792  -3.675759033  -4.874509545
  O   -0.382477795  -5.135089609  -6.375755443
  C   -2.327151790  -6.923453239  -5.160632784
  H   -2.601561706  -6.512793316  -6.145001068
  H   -1.794075978  -7.872030034  -5.339535074
  H   -3.263620079  -7.169202922  -4.641199732
  H   -2.239066120  -6.482565592  -2.438576651
  P    1.906532171  -4.153159183   2.769990818
  O    1.745903074  -5.714717336   2.273493516
  C    2.526734967  -6.703136696   2.992251179
  H    3.034514411  -6.281072481   3.883070917
  H    1.763213590  -7.435374063   3.338394163
  C    3.519089979  -7.378418968   2.036961192
  H    4.439572621  -7.692694909   2.586302839
  O    2.957844219  -8.652653419   1.606982115
  C    2.430225717  -8.565756950   0.271797358
  H    2.745826100  -9.519151135  -0.217647053
  C    3.851834772  -6.609817320   0.731706047
  H    3.690292173  -5.506437351   0.794601330
  C    2.999150052  -7.290103534  -0.354253435
  H    2.209130408  -6.594213761  -0.725310837
  H    3.596083682  -7.512565142  -1.260857503
  O    5.240955781  -6.678182464   0.459624538
  O    2.031172354  -3.852187877   4.189570790
  O    3.158771380  -3.684935855   1.797761487
  N    0.925446513  -8.591366735   0.416498505
  C    0.032760788  -8.027916956  -0.605325743
  N   -1.329797765  -8.005320733  -0.342988005
  C   -1.825392487  -8.609733099   0.777448355
  C   -0.967094862  -9.234892521   1.746480963
  C    0.388217880  -9.201118319   1.542874156
  O    0.534622673  -7.570432190  -1.617204021
  N   -3.187412180  -8.552484449   0.964622287
  H   -3.630517009  -9.072375620   1.706705499
  H   -3.789148852  -8.217384422   0.225889242
  H    1.077002954  -4.565791201  -7.104612835
  H    1.096764857  -9.654952710   2.259465108
  H   -1.382519445  -9.726900442   2.623049874
  H    5.552673779  -7.597576543   0.308388622
  H   -1.912199526  -2.859071133  -4.807476055
  H   -3.347011767  -3.115042495  -0.459758818
  H    3.910774367  -3.177835106   2.201127637
  H    0.792037326  -7.837059461  -9.995027433
  H   -4.007547067   5.325206720  -4.870193588

