%mem=64gb
%nproc=28       
%Chk=snap_173.chk
# opt b3lyp/6-31g(d,p)  scf=(xqc, tight)  pop=min    

tetra snap_173 

2     1 
  O    0.783862814  -1.606582681  -6.389076508
  C    0.777547172  -2.735280855  -7.250459033
  H    1.023394040  -3.657583666  -6.671365601
  H    1.608437445  -2.532141107  -7.960629614
  C   -0.560324368  -2.841734233  -8.002501474
  H   -0.770393214  -1.924184472  -8.600427853
  O   -0.389878462  -3.904741247  -8.999122821
  C   -1.404870067  -4.896169683  -8.885708398
  H   -1.690322652  -5.182022523  -9.928757850
  C   -1.792140449  -3.246781266  -7.154198113
  H   -1.508049296  -3.618843747  -6.140953977
  C   -2.504765398  -4.323905066  -7.985909275
  H   -3.316526135  -3.857816234  -8.594557176
  H   -3.023378771  -5.082821210  -7.372726444
  O   -2.678680970  -2.095984294  -7.095152951
  N   -0.750953556  -6.096865509  -8.241419978
  C   -1.146768648  -7.449061206  -8.326010505
  C   -0.242472236  -8.183636093  -7.500383383
  N    0.684947271  -7.289182627  -6.956921313
  C    0.371379459  -6.050181701  -7.386285035
  N   -2.191005830  -7.997209467  -9.010298989
  C   -2.308322877  -9.366294819  -8.876056192
  N   -1.422250756 -10.167843330  -8.112737290
  C   -0.362027256  -9.606675698  -7.306672799
  N   -3.318443254  -9.976931138  -9.568090751
  H   -3.953506988  -9.413590515 -10.130036445
  H   -3.551146161 -10.952730937  -9.450954868
  O    0.274964665 -10.318337020  -6.560943244
  H    0.919318166  -5.123714201  -7.108791880
  H   -1.625434809 -11.167007124  -7.960523968
  P   -2.764923052  -1.400216366  -5.605967851
  O   -2.874678643   0.217821469  -5.833821588
  C   -1.689720186   0.934155431  -6.232614239
  H   -2.099059316   1.962509938  -6.346065713
  H   -1.344702455   0.572342494  -7.223132232
  C   -0.555560443   0.899267823  -5.194617157
  H    0.203950613   0.097119375  -5.418302379
  O    0.212490173   2.134019857  -5.371104228
  C    0.294921033   2.884278535  -4.154192219
  H    1.377631963   3.160725215  -4.050479532
  C   -0.999540860   0.862333742  -3.713718699
  H   -2.112738895   0.913123815  -3.591715945
  C   -0.286840182   2.038912007  -3.026680520
  H    0.520173201   1.648816196  -2.355422968
  H   -0.965568915   2.576188359  -2.337898700
  O   -0.429013189  -0.329061479  -3.129240416
  O   -1.461403449  -1.800144036  -4.914259193
  O   -4.232302182  -1.848627663  -5.148935311
  N   -0.489659881   4.143715598  -4.401577350
  C   -0.683538034   4.752507685  -5.637069361
  C   -1.384069785   5.978256211  -5.393391194
  N   -1.613169208   6.118485604  -4.017942735
  C   -1.084072398   5.042258869  -3.436754080
  N   -0.325240692   4.363114739  -6.927090896
  C   -0.682985627   5.249364818  -7.960694294
  N   -1.327238238   6.390615543  -7.782724517
  C   -1.708787301   6.833034355  -6.496229375
  H   -0.402397559   4.954163413  -8.996412496
  N   -2.339933375   8.011193080  -6.388356305
  H   -2.543855979   8.586317099  -7.207123985
  H   -2.631008815   8.371612563  -5.477995805
  H   -1.066791952   4.833603647  -2.370003268
  P   -1.533243009  -1.499606317  -2.740568034
  O   -0.762500407  -2.938039035  -2.934146130
  C   -1.649279756  -4.082399062  -3.027929916
  H   -2.574363877  -3.881515142  -3.598757420
  H   -1.032258981  -4.818258879  -3.594935039
  C   -1.954545837  -4.547526132  -1.597160675
  H   -2.324464433  -3.731951271  -0.927069715
  O   -3.070193357  -5.467527309  -1.661593314
  C   -2.702099663  -6.764813710  -1.158518314
  H   -3.551625601  -7.059706260  -0.493929848
  C   -0.764008986  -5.299488848  -0.954440036
  H    0.087809874  -5.459186719  -1.663111452
  C   -1.354210546  -6.623915933  -0.443622936
  H   -0.666450109  -7.475951562  -0.630844586
  H   -1.496439530  -6.601128731   0.658174086
  O   -0.372731404  -4.427916680   0.131663662
  O   -2.919972863  -1.215200745  -3.255543277
  O   -1.421143361  -1.420732693  -1.114092124
  N   -2.683971449  -7.684697782  -2.345785145
  C   -1.624016543  -7.631261547  -3.294722185
  N   -1.796751152  -8.388967661  -4.475535757
  C   -2.984335757  -9.125218641  -4.823137200
  C   -4.024944244  -9.116854591  -3.786583040
  C   -3.861613024  -8.419074194  -2.635208169
  O   -0.605099426  -6.979683634  -3.127613755
  H   -0.981602785  -8.437599471  -5.096419023
  O   -3.003756907  -9.642386427  -5.922208982
  C   -5.241645595  -9.928975654  -4.061877285
  H   -6.107569730  -9.632322193  -3.452546666
  H   -5.553309702  -9.855430903  -5.117489648
  H   -5.055155837 -10.999021044  -3.864921835
  H   -4.637585831  -8.400415946  -1.855688172
  P    1.184602682  -4.609597233   0.653778393
  O    1.635502394  -3.056566819   0.351550809
  C    3.057768721  -2.823780553   0.166650905
  H    3.237328496  -1.929338878   0.804626355
  H    3.689394743  -3.665017680   0.524417549
  C    3.354876455  -2.516805808  -1.303196368
  H    4.181840942  -1.764814444  -1.388910492
  O    3.897933888  -3.732094953  -1.903423581
  C    3.330524202  -3.963805179  -3.201488384
  H    4.182425348  -3.881031285  -3.922975123
  C    2.142711660  -2.092837257  -2.157499808
  H    1.185101538  -2.183079633  -1.602563568
  C    2.197399414  -2.959386477  -3.421234780
  H    1.221743215  -3.445115886  -3.636239320
  H    2.396107859  -2.340723650  -4.323983382
  O    2.352893103  -0.710659144  -2.480629536
  O    1.980783491  -5.701167982   0.086997389
  O    0.966174593  -4.622089344   2.261375007
  N    2.852144001  -5.396576676  -3.239433098
  C    2.235273658  -5.846083232  -4.470336289
  N    2.019879470  -7.201895114  -4.649069680
  C    2.267522931  -8.093707290  -3.631170604
  C    2.820248073  -7.640264372  -2.389395125
  C    3.120040629  -6.309605650  -2.221531681
  O    1.928580098  -5.017862808  -5.325325834
  N    1.936092358  -9.399666871  -3.880905783
  H    2.199619873 -10.137839069  -3.243934304
  H    1.600748760  -9.691038287  -4.797005830
  H    0.195829769  -1.756936200  -5.586937551
  H    3.577002730  -5.910137383  -1.292745060
  H    2.995049314  -8.335161051  -1.567798358
  H    1.575930352  -0.391695303  -3.000721507
  H   -4.501104897  -1.604465318  -4.173560677
  H   -0.791747728  -2.041802432  -0.641482881
  H    0.443857182  -3.880666445   2.679200843
  H    1.414835385  -7.525582628  -6.187334201
  H    0.188513874   3.479259782  -7.067706239

