%mem=64gb
%nproc=28       
%Chk=snap_127.chk
# opt b3lyp/6-31g(d,p)  scf=(xqc, tight)  pop=min    

tetra snap_127 

2     1 
  O    1.522562543  -3.998122747  -6.754691732
  C    1.373233256  -3.124277726  -7.880256302
  H    2.117469294  -3.524906035  -8.605520576
  H    1.660027578  -2.099628735  -7.581953193
  C   -0.034941328  -3.154887024  -8.478819928
  H   -0.265643546  -2.219855957  -9.040721584
  O   -0.079140923  -4.208552465  -9.498581906
  C   -1.195721607  -5.070483219  -9.290482519
  H   -1.600124202  -5.316818207 -10.301823138
  C   -1.164506528  -3.502524951  -7.476047442
  H   -0.758447698  -4.072621094  -6.600299133
  C   -2.128794194  -4.372393388  -8.296247682
  H   -2.888818719  -3.745278932  -8.807842969
  H   -2.720088805  -5.072090842  -7.663793169
  O   -1.765815601  -2.265871081  -7.084704212
  N   -0.644121488  -6.340978583  -8.687864987
  C   -1.099806978  -7.651778081  -8.930595081
  C   -0.433737674  -8.496099547  -7.995196145
  N    0.392959823  -7.689749886  -7.199104170
  C    0.266355985  -6.409809700  -7.614072367
  N   -1.978451109  -8.086276850  -9.887691213
  C   -2.186223900  -9.442107761  -9.899765436
  N   -1.564017575 -10.345492472  -8.999318898
  C   -0.642679236  -9.918831154  -7.958476278
  N   -3.058900393  -9.937563672 -10.835390150
  H   -3.491095324  -9.300154048 -11.501116133
  H   -3.229101628 -10.923077013 -10.964269491
  O   -0.167364617 -10.751271377  -7.221081828
  H    0.841263301  -5.520339169  -7.190845734
  H   -1.758417167 -11.354727676  -9.049780688
  P   -1.908284910  -2.133975128  -5.421251798
  O   -2.375142500  -0.547490266  -5.406032115
  C   -1.351080438   0.401207397  -5.058577790
  H   -1.472118406   1.199671263  -5.819175936
  H   -0.324959046  -0.015878579  -5.120817619
  C   -1.666454908   0.917010661  -3.643424508
  H   -1.003350470   0.470786011  -2.857207936
  O   -1.296208880   2.332630001  -3.590707242
  C   -2.444746142   3.164005355  -3.405025258
  H   -2.122466953   3.954896072  -2.680157858
  C   -3.179263315   0.835016743  -3.301644436
  H   -3.789817622   0.384446511  -4.126379064
  C   -3.602831612   2.278471948  -2.968770732
  H   -3.774151357   2.352401163  -1.862986462
  H   -4.582219083   2.529601946  -3.411110970
  O   -3.446022276   0.108937595  -2.096898652
  O   -0.604971369  -2.479275877  -4.802733978
  O   -3.262819334  -3.014017261  -5.316867316
  N   -2.670777149   3.819507297  -4.742587520
  C   -1.668075327   4.113604983  -5.660266697
  C   -2.296391817   4.752328479  -6.777465165
  N   -3.675937778   4.840964833  -6.545256763
  C   -3.892362797   4.290994027  -5.349078008
  N   -0.290828367   3.893446785  -5.624296289
  C    0.436793170   4.362068284  -6.731803471
  N   -0.098198342   4.958803909  -7.785312402
  C   -1.488893107   5.189971538  -7.876395647
  H    1.539104398   4.212541036  -6.713486002
  N   -1.962889041   5.794112007  -8.976593721
  H   -1.343876148   6.095980006  -9.729855811
  H   -2.960703862   5.984751181  -9.082870744
  H   -4.853615777   4.201918070  -4.849329305
  P   -2.867693524  -1.437546789  -1.956315921
  O   -1.492313395  -0.942352536  -1.223379159
  C   -0.440401169  -1.924419337  -1.038396991
  H   -0.186035504  -2.400001815  -2.014351538
  H    0.420446817  -1.311914799  -0.688323274
  C   -0.974398730  -2.887686448   0.018069336
  H   -1.169450490  -2.395783578   1.001369081
  O   -2.305668478  -3.219418526  -0.514470489
  C   -2.453169990  -4.660912060  -0.702889423
  H   -3.476604193  -4.858444207  -0.295778210
  C   -0.225147203  -4.222190474   0.195335514
  H    0.589731296  -4.338381529  -0.576622840
  C   -1.313102099  -5.305851346   0.082841088
  H   -0.923524640  -6.240243669  -0.372523035
  H   -1.651938331  -5.613991434   1.098403178
  O    0.318426262  -4.191433036   1.525402398
  O   -2.702776932  -2.137990392  -3.266848549
  O   -4.102573263  -1.971470131  -1.052460350
  N   -2.435149231  -4.966662442  -2.158403267
  C   -1.209890069  -5.064792363  -2.900896233
  N   -1.310637805  -5.566508220  -4.211696988
  C   -2.535896278  -5.894206417  -4.876618356
  C   -3.752861092  -5.625887088  -4.088821238
  C   -3.675959071  -5.190489597  -2.806812237
  O   -0.128913205  -4.778729834  -2.412709983
  H   -0.403907316  -5.728323675  -4.718935604
  O   -2.447812897  -6.331988710  -6.007475502
  C   -5.053953561  -5.855756136  -4.774082296
  H   -4.930010329  -5.916762350  -5.869818473
  H   -5.514360555  -6.806440398  -4.458458124
  H   -5.781353287  -5.052106241  -4.587708076
  H   -4.576765082  -4.989753082  -2.207837597
  P    1.666474626  -5.141970921   1.710859904
  O    2.723134087  -4.308058833   0.766863692
  C    3.474325377  -5.078755009  -0.207397707
  H    4.386774774  -5.463379722   0.292461300
  H    2.890404444  -5.925885523  -0.619729726
  C    3.823690441  -4.026672120  -1.274828833
  H    4.586078825  -3.307222324  -0.898627305
  O    4.489979792  -4.716924724  -2.370497731
  C    3.670715160  -4.747585770  -3.549434829
  H    4.375861437  -4.539856368  -4.391508973
  C    2.582868271  -3.326315817  -1.880625867
  H    1.639434402  -3.613096301  -1.344986162
  C    2.550298753  -3.732951715  -3.359404593
  H    1.532217235  -4.124024872  -3.625013296
  H    2.663005964  -2.862774097  -4.032746974
  O    2.607228284  -1.918533616  -1.709116822
  O    1.502533011  -6.566270806   1.388477935
  O    2.096284134  -4.683852281   3.205083931
  N    3.197172113  -6.181550707  -3.698868020
  C    2.078408121  -6.514777947  -4.552727306
  N    1.798448352  -7.847564432  -4.796892369
  C    2.541006130  -8.850111752  -4.223638614
  C    3.625693492  -8.526065951  -3.333153561
  C    3.939606011  -7.210352867  -3.116855068
  O    1.402349153  -5.625292656  -5.068514431
  N    2.212266916 -10.125882510  -4.579270447
  H    2.678973925 -10.928766255  -4.182517718
  H    1.445880295 -10.312861939  -5.222774059
  H    0.977100332  -3.691360450  -5.969724544
  H    4.792108607  -6.905924489  -2.481115340
  H    4.200147747  -9.318592423  -2.853546201
  H    3.427025630  -1.512541268  -2.063846244
  H   -3.620579707  -3.177049109  -4.365990442
  H   -3.961978110  -2.054015015  -0.057247536
  H    1.972991179  -5.342757073   3.950359189
  H    0.937855961  -8.027983985  -6.365732751
  H    0.123430203   3.398182702  -4.818623031

