%mem=64gb
%nproc=28       
%Chk=snap_65.chk
# opt b3lyp/6-31g(d,p)  scf=(xqc, tight)  pop=min    

tetra snap_65 

2     1 
  O    1.616798303  -4.617027894  -4.975263627
  C    2.044073387  -3.376283246  -5.542183807
  H    3.101661346  -3.582286951  -5.828508213
  H    2.013214387  -2.583785617  -4.769426399
  C    1.228754164  -2.970685139  -6.772314930
  H    1.419632567  -1.900079357  -7.038346457
  O    1.730673172  -3.707408835  -7.933898150
  C    0.676890012  -4.359280289  -8.631490645
  H    0.871806085  -4.196333192  -9.722112573
  C   -0.293146611  -3.249522731  -6.702217858
  H   -0.575120070  -3.927672956  -5.866754420
  C   -0.651972337  -3.839839126  -8.074023078
  H   -1.080327571  -3.044245315  -8.726465441
  H   -1.447278010  -4.607684401  -8.014489248
  O   -0.933091198  -1.965967098  -6.611106617
  N    0.813053236  -5.833679789  -8.360256473
  C    0.438461558  -6.867998343  -9.240827664
  C    0.620269925  -8.092716068  -8.533733161
  N    1.098897287  -7.781126822  -7.252287047
  C    1.213849383  -6.435773869  -7.153236412
  N   -0.023674153  -6.737200892 -10.521221035
  C   -0.304042365  -7.929860111 -11.148373080
  N   -0.147494105  -9.187736400 -10.528068525
  C    0.327888946  -9.365009337  -9.152432670
  N   -0.770457360  -7.865859279 -12.436470655
  H   -0.859307586  -6.961024597 -12.893473310
  H   -0.997696172  -8.683690730 -12.982563576
  O    0.408686946 -10.489300254  -8.735989106
  H    1.598635276  -5.873173123  -6.263423578
  H   -0.365611266 -10.058131770 -11.036888124
  P   -1.802431711  -1.679151560  -5.234011038
  O   -2.779341482  -0.491900768  -5.831370594
  C   -2.162335910   0.805626977  -5.942282578
  H   -2.943865115   1.375791082  -6.489377489
  H   -1.251942163   0.759305805  -6.571276192
  C   -1.888530551   1.401389071  -4.552139953
  H   -0.889642598   1.114022538  -4.126031878
  O   -1.769134539   2.850114028  -4.711581957
  C   -2.859638570   3.533015805  -4.087818147
  H   -2.397533601   4.407399569  -3.560290474
  C   -3.043763353   1.146544483  -3.547910107
  H   -3.827373525   0.452791108  -3.941616594
  C   -3.610338958   2.541007131  -3.208985181
  H   -3.418451235   2.742451053  -2.122929212
  H   -4.709236674   2.566684065  -3.306867050
  O   -2.496831028   0.667608495  -2.322935516
  O   -0.894745887  -1.252493484  -4.117099682
  O   -2.692485319  -3.031631612  -5.218614681
  N   -3.685542635   4.070199392  -5.230700315
  C   -3.184482570   4.392466837  -6.487620875
  C   -4.259130640   4.979225246  -7.230824015
  N   -5.410262028   5.013833386  -6.431784055
  C   -5.068599103   4.483066078  -5.256039759
  N   -1.914188498   4.234956964  -7.042816243
  C   -1.745913702   4.723869351  -8.349577643
  N   -2.705896816   5.278690257  -9.072726173
  C   -4.013283326   5.442913732  -8.563603077
  H   -0.732886689   4.628353806  -8.800491451
  N   -4.931155042   6.020550156  -9.353360991
  H   -4.696723325   6.349562960 -10.290758437
  H   -5.889111330   6.164126676  -9.031127588
  H   -5.718200562   4.368776466  -4.391767007
  P   -2.242231149  -0.974165945  -2.146040708
  O   -0.681702214  -0.769531585  -1.727639339
  C    0.205676786  -1.912844627  -1.703062809
  H    0.182366959  -2.463487030  -2.667079407
  H    1.198499105  -1.441950632  -1.560281389
  C   -0.263663670  -2.734675553  -0.504969276
  H   -0.178552608  -2.172484707   0.458952427
  O   -1.708078622  -2.832644732  -0.761284091
  C   -2.141636654  -4.209403283  -0.781263901
  H   -3.089665338  -4.181714540  -0.187118299
  C    0.264613118  -4.172529301  -0.339690378
  H    0.919041152  -4.500679805  -1.181776079
  C   -1.003026442  -5.035141124  -0.176145542
  H   -0.880219413  -6.043221556  -0.626590083
  H   -1.202675827  -5.240653100   0.899006866
  O    1.010929007  -4.111213769   0.895489809
  O   -2.914135076  -1.782309415  -3.226366484
  O   -3.135096921  -1.090256072  -0.778746172
  N   -2.462300248  -4.625319510  -2.182310949
  C   -1.443635328  -5.029533854  -3.089342240
  N   -1.833926950  -5.827073702  -4.179056460
  C   -3.200239749  -6.224484905  -4.449937319
  C   -4.200436818  -5.521917393  -3.622549799
  C   -3.827340150  -4.799192043  -2.539222098
  O   -0.267201771  -4.699913164  -2.951248141
  H   -1.079482320  -6.360718731  -4.655956445
  O   -3.362621906  -7.072192862  -5.294435944
  C   -5.624228878  -5.676592493  -4.025289021
  H   -6.246472183  -6.081702493  -3.211693479
  H   -6.070870698  -4.719078292  -4.336939601
  H   -5.741400762  -6.369804203  -4.878499960
  H   -4.554669211  -4.290320730  -1.888518324
  P    1.967082008  -5.412941919   1.220503357
  O    3.310232775  -4.982765007   0.399684754
  C    4.412766431  -5.934875694   0.456504930
  H    5.222478248  -5.366027883   0.967116768
  H    4.180060022  -6.849585636   1.041309169
  C    4.805122842  -6.299894280  -0.973227540
  H    5.893971404  -6.562424717  -1.025721630
  O    4.116879074  -7.541672191  -1.310699870
  C    3.642212842  -7.507649761  -2.665277798
  H    4.171016484  -8.334402090  -3.201428460
  C    4.443785093  -5.266964443  -2.074057836
  H    3.757687343  -4.472176707  -1.715641980
  C    3.879552587  -6.103255245  -3.226728299
  H    2.972811393  -5.650087380  -3.681812558
  H    4.614516786  -6.127858250  -4.065430668
  O    5.647027622  -4.684766610  -2.581028498
  O    1.371331728  -6.727997620   0.924174037
  O    2.399088249  -5.105263082   2.757616828
  N    2.172475461  -7.859175931  -2.619899202
  C    1.474075111  -7.954887093  -3.891637545
  N    0.122565527  -8.239248170  -3.903144970
  C   -0.512023121  -8.540916501  -2.725312233
  C    0.180007257  -8.519044581  -1.473769119
  C    1.512120454  -8.171871697  -1.441917522
  O    2.122343066  -7.770211823  -4.920501635
  N   -1.876536781  -8.759293575  -2.794463343
  H   -2.338450852  -9.255159224  -2.043724321
  H   -2.313728331  -8.853576369  -3.710024905
  H    0.802068521  -4.512301843  -4.407838403
  H    2.093563677  -8.128361282  -0.496472036
  H   -0.323814184  -8.779262231  -0.542868402
  H    5.946529859  -3.934317870  -2.025660771
  H   -3.173037267  -3.215863152  -4.323333503
  H   -2.678268235  -0.983743523   0.096847354
  H    1.828748798  -5.456344646   3.497345352
  H    1.290645626  -8.437484380  -6.470262482
  H   -1.166180426   3.800249997  -6.477402555

