%mem=64gb
%nproc=28       
%Chk=snap_171.chk
# opt b3lyp/6-31g(d,p)  scf=(xqc, tight)  pop=min    

tetra snap_171 

2     1 
  O    0.839958733  -1.631171148  -6.260905557
  C    0.832367462  -2.720740719  -7.170253463
  H    1.089804482  -3.667314355  -6.639141959
  H    1.657686036  -2.479418514  -7.875306422
  C   -0.511787757  -2.801568744  -7.915187221
  H   -0.723421970  -1.865424282  -8.481090864
  O   -0.353914819  -3.829096317  -8.949877653
  C   -1.377080095  -4.816120803  -8.868556374
  H   -1.671088402  -5.058184427  -9.920004934
  C   -1.735428139  -3.238645436  -7.070545201
  H   -1.436834430  -3.658311588  -6.081021284
  C   -2.466315519  -4.273000154  -7.938841330
  H   -3.281225134  -3.774541663  -8.516690883
  H   -2.986809308  -5.050138360  -7.350168765
  O   -2.621666669  -2.096688355  -6.945660101
  N   -0.732623170  -6.044175907  -8.270713673
  C   -1.145988344  -7.387171756  -8.406508423
  C   -0.285330124  -8.157137068  -7.567619520
  N    0.635719243  -7.293649443  -6.967767158
  C    0.356510150  -6.037684473  -7.373064766
  N   -2.165249540  -7.897707098  -9.155312279
  C   -2.308197788  -9.267825132  -9.068030936
  N   -1.473677586 -10.103759040  -8.283375367
  C   -0.449644373  -9.580752587  -7.405319484
  N   -3.295995117  -9.841940025  -9.821191979
  H   -3.884065600  -9.256470506 -10.410817185
  H   -3.513120536 -10.827498886  -9.786409856
  O    0.136020241 -10.321503105  -6.646850022
  H    0.910393449  -5.128651448  -7.052739049
  H   -1.694813637 -11.103698647  -8.171530414
  P   -2.690776452  -1.471298775  -5.424023042
  O   -2.829907067   0.147604500  -5.634858743
  C   -1.689383666   0.848751322  -6.170830219
  H   -2.119010330   1.861548476  -6.336409498
  H   -1.396897686   0.420407681  -7.150963803
  C   -0.504468123   0.900442362  -5.193403212
  H    0.277043508   0.121567464  -5.417712335
  O    0.202996618   2.156136471  -5.452825118
  C    0.232482804   2.985333018  -4.287564475
  H    1.265132878   3.420187703  -4.260821947
  C   -0.890007176   0.912672165  -3.693468952
  H   -1.998707536   0.956138099  -3.534374172
  C   -0.168351030   2.131046563  -3.091881516
  H    0.734590826   1.786441709  -2.526682634
  H   -0.777897712   2.642252714  -2.325653475
  O   -0.289061556  -0.246404083  -3.085639515
  O   -1.378562720  -1.896337091  -4.763726333
  O   -4.132711179  -1.964964528  -4.932796072
  N   -0.737159170   4.099175358  -4.572762968
  C   -0.894108031   4.706403055  -5.815768994
  C   -1.836868688   5.769831181  -5.644669604
  N   -2.260356353   5.806130097  -4.308772182
  C   -1.613725680   4.823085572  -3.681688419
  N   -0.310756071   4.439403637  -7.053955606
  C   -0.680356476   5.297669452  -8.107039148
  N   -1.537784302   6.298368164  -7.993878079
  C   -2.168755676   6.598066492  -6.765777476
  H   -0.209884296   5.112623946  -9.099140204
  N   -3.027092742   7.627343064  -6.725004346
  H   -3.223409178   8.193101994  -7.552125958
  H   -3.500816903   7.883968509  -5.857078313
  H   -1.697818976   4.571660507  -2.627598408
  P   -1.363379056  -1.417451956  -2.607391487
  O   -0.455119886  -2.774654483  -2.724874293
  C   -1.172518474  -4.024429264  -2.847358409
  H   -2.018545764  -3.964320540  -3.557092261
  H   -0.395661746  -4.695041657  -3.282274966
  C   -1.645549418  -4.470260061  -1.458101286
  H   -1.893049231  -3.622636590  -0.771252539
  O   -2.915722925  -5.148341591  -1.653457706
  C   -2.838024302  -6.522827222  -1.247957781
  H   -3.795811665  -6.708086134  -0.702357701
  C   -0.694426688  -5.471690258  -0.758530043
  H    0.185822411  -5.760179249  -1.386656289
  C   -1.571703228  -6.682846032  -0.401971865
  H   -1.038639686  -7.639235283  -0.574945429
  H   -1.816588633  -6.675063261   0.683141148
  O   -0.297317327  -4.805181204   0.462270116
  O   -2.771381945  -1.213670639  -3.095034950
  O   -1.247974349  -1.233138112  -0.987333011
  N   -2.839134863  -7.353393173  -2.503854931
  C   -1.670937528  -7.471077298  -3.308074114
  N   -1.801900319  -8.201803144  -4.511269279
  C   -3.031742897  -8.754662561  -5.012777875
  C   -4.191296474  -8.547582264  -4.135277688
  C   -4.072802451  -7.876427747  -2.961793516
  O   -0.595193758  -6.978386301  -3.006454235
  H   -0.929573758  -8.357489473  -5.029805472
  O   -2.986714575  -9.294302606  -6.099580201
  C   -5.482344754  -9.125556216  -4.599179686
  H   -6.359131750  -8.652727622  -4.134877580
  H   -5.604493347  -9.024415495  -5.690571448
  H   -5.538740816 -10.205598031  -4.377417544
  H   -4.936890656  -7.711930693  -2.301367195
  P    1.310337969  -4.869169691   0.809733274
  O    1.702617150  -3.334587698   0.348798966
  C    3.128988847  -3.075145110   0.228410941
  H    3.271377409  -2.171437311   0.862570515
  H    3.759900717  -3.903321649   0.616444380
  C    3.483552260  -2.771769724  -1.227748153
  H    4.328110421  -2.037537044  -1.280283968
  O    4.021212067  -3.990079566  -1.830547698
  C    3.516881647  -4.174414055  -3.161469511
  H    4.418670306  -4.202129221  -3.822579946
  C    2.310299083  -2.325980360  -2.122587568
  H    1.323593344  -2.561175650  -1.663734929
  C    2.524745274  -3.048954886  -3.458414033
  H    1.569099127  -3.408443875  -3.891931619
  H    2.928827190  -2.355914739  -4.226777795
  O    2.442940214  -0.907565064  -2.264520279
  O    2.100808757  -5.953829837   0.219301301
  O    1.259870476  -4.776273998   2.429342571
  N    2.886483382  -5.550830459  -3.211125651
  C    2.225983071  -5.949928139  -4.434899195
  N    1.927450795  -7.289191994  -4.626774140
  C    2.126775071  -8.204551775  -3.619434211
  C    2.703444259  -7.794711437  -2.372953997
  C    3.095666962  -6.490038995  -2.200466429
  O    1.946592925  -5.099919037  -5.279119254
  N    1.726355457  -9.488138313  -3.882802022
  H    1.936460798 -10.241980445  -3.243853955
  H    1.397238563  -9.759149270  -4.807042146
  H    0.279945596  -1.818166014  -5.447474382
  H    3.582657688  -6.128647212  -1.269246768
  H    2.828671262  -8.504313800  -1.553925627
  H    1.704383753  -0.565874877  -2.823619210
  H   -4.360077792  -1.766200145  -3.936588130
  H   -0.378855658  -1.477027207  -0.555277592
  H    0.563730454  -4.196943541   2.850874974
  H    1.341765070  -7.563329084  -6.190269767
  H    0.328348346   3.637138570  -7.157364542

