%mem=64gb
%nproc=28       
%Chk=snap_63.chk
# opt b3lyp/6-31g(d,p)  scf=(xqc, tight)  pop=min    

tetra snap_63 

2     1 
  O    0.550193633  -5.875657504  -5.730011379
  C    1.350708264  -4.665017458  -5.752141883
  H    2.408271091  -4.948041426  -5.930091971
  H    1.250292558  -4.198902212  -4.747147746
  C    0.821641824  -3.748681931  -6.849138132
  H    1.276708681  -2.727895633  -6.759271955
  O    1.306404896  -4.205326949  -8.152281456
  C    0.234908292  -4.501883789  -9.038292896
  H    0.519010976  -4.066412432 -10.029601087
  C   -0.722184297  -3.664007687  -6.946866659
  H   -1.250888287  -4.336325354  -6.233369130
  C   -1.062518223  -3.988056083  -8.410582758
  H   -1.416735067  -3.064947316  -8.924113392
  H   -1.909098474  -4.696371201  -8.494895991
  O   -1.051643790  -2.276289589  -6.739660364
  N    0.228778291  -6.003530536  -9.195351168
  C    0.122457322  -6.731501480 -10.401599210
  C    0.273323543  -8.104741432 -10.058412424
  N    0.472261647  -8.182867865  -8.664242007
  C    0.447926679  -6.925267155  -8.163431951
  N   -0.095819374  -6.243480381 -11.659356241
  C   -0.147541805  -7.205480463 -12.643931471
  N    0.013341042  -8.585576970 -12.392212079
  C    0.226694103  -9.144520725 -11.057679818
  N   -0.373516974  -6.782017004 -13.927703571
  H   -0.482917022  -5.788827187 -14.117982883
  H   -0.413151468  -7.410303474 -14.717227110
  O    0.332384072 -10.338399848 -10.956533885
  H    0.588192460  -6.577587496  -7.045393657
  H   -0.014870963  -9.270213182 -13.163006775
  P   -1.849486797  -1.859288627  -5.353418301
  O   -2.770582541  -0.638295976  -5.988036844
  C   -2.120705800   0.635266150  -6.143363028
  H   -2.874314406   1.204601012  -6.729548965
  H   -1.198275864   0.540567140  -6.748333128
  C   -1.862350256   1.288952029  -4.777184448
  H   -0.850401833   1.055973590  -4.351401470
  O   -1.805115553   2.737390262  -4.989197994
  C   -2.865859544   3.408819727  -4.303925001
  H   -2.375699848   4.257966493  -3.759767412
  C   -2.992836211   1.023391236  -3.749234167
  H   -3.754902511   0.287092676  -4.109003168
  C   -3.612226216   2.401245881  -3.439867561
  H   -3.466102744   2.614733101  -2.349645870
  H   -4.707363946   2.385395392  -3.581116433
  O   -2.398712944   0.614661948  -2.521899147
  O   -0.909438198  -1.414949503  -4.275952947
  O   -2.869141430  -3.111900156  -5.267065824
  N   -3.725271105   3.999755169  -5.393447082
  C   -3.273128226   4.377423010  -6.651815322
  C   -4.378109775   4.988161939  -7.329737018
  N   -5.498837520   4.982345185  -6.488120989
  C   -5.110716359   4.403568648  -5.350075756
  N   -2.022312440   4.255016170  -7.256833744
  C   -1.907578264   4.793997022  -8.549066686
  N   -2.898298904   5.368260580  -9.214750887
  C   -4.186774429   5.501452142  -8.652324451
  H   -0.910910998   4.726849510  -9.039636928
  N   -5.142722559   6.094339286  -9.384933392
  H   -4.953271375   6.453324950 -10.321019131
  H   -6.086284332   6.218097578  -9.015161355
  H   -5.727779164   4.248617296  -4.468347742
  P   -2.165506862  -1.018692003  -2.255240683
  O   -0.593507776  -0.804020293  -1.896866549
  C    0.289063106  -1.945421285  -1.781110718
  H    0.240911020  -2.581952307  -2.692484857
  H    1.286350453  -1.468400459  -1.708109184
  C   -0.154029798  -2.638296688  -0.492287854
  H   -0.036070693  -1.980916385   0.406580433
  O   -1.604726819  -2.737160173  -0.694920627
  C   -2.049273304  -4.114224170  -0.634515984
  H   -2.987675006  -4.045861799  -0.029813968
  C    0.359928884  -4.059552437  -0.184308938
  H    1.052555810  -4.462773976  -0.958066956
  C   -0.909922270  -4.911527579   0.006985079
  H   -0.787344217  -5.934124675  -0.411025820
  H   -1.123141138  -5.081712437   1.083642719
  O    1.057681730  -3.877376007   1.071599722
  O   -2.883483466  -1.868475639  -3.268029142
  O   -3.049072320  -1.026014948  -0.874848137
  N   -2.379312768  -4.587702189  -2.006319541
  C   -1.352478408  -4.959634165  -2.932176692
  N   -1.768849977  -5.690199872  -4.055015805
  C   -3.129893460  -6.048258504  -4.355706361
  C   -4.123930738  -5.393726096  -3.485165759
  C   -3.742107556  -4.721249289  -2.370852499
  O   -0.178498943  -4.659947827  -2.764744844
  H   -0.997367340  -6.079510944  -4.650986429
  O   -3.304448943  -6.822118205  -5.268890733
  C   -5.549962609  -5.507769538  -3.895727484
  H   -5.677956807  -6.195993073  -4.751467546
  H   -6.188523059  -5.893735362  -3.086950304
  H   -5.961300283  -4.535791753  -4.210711046
  H   -4.467789830  -4.235328736  -1.703607559
  P    1.929883482  -5.148720053   1.639349757
  O    3.413020552  -4.783948401   1.070392585
  C    4.445533131  -5.776159324   1.349040051
  H    5.178880859  -5.218988705   1.974473737
  H    4.077482303  -6.657462641   1.913057583
  C    5.052808662  -6.202383323   0.012488585
  H    6.110371783  -6.546233556   0.146820837
  O    4.362649075  -7.404257356  -0.438257271
  C    3.885105975  -7.264446507  -1.781239062
  H    4.355153302  -8.102469750  -2.354362524
  C    4.944339317  -5.147483632  -1.120075621
  H    4.440069758  -4.213241070  -0.792705356
  C    4.232941200  -5.858610322  -2.277519947
  H    3.352361227  -5.298365582  -2.642034477
  H    4.917612640  -5.908769270  -3.157983546
  O    6.256690849  -4.854045062  -1.605408888
  O    1.387487419  -6.488218734   1.345956755
  O    2.094390071  -4.733882462   3.205615575
  N    2.393819402  -7.529265567  -1.739136128
  C    1.624521606  -7.368509106  -2.953903852
  N    0.298829632  -7.750163313  -2.982835113
  C   -0.289092033  -8.251571593  -1.853693670
  C    0.454192156  -8.427556920  -0.644882148
  C    1.781825831  -8.068756773  -0.608952277
  O    2.181013291  -6.887191691  -3.950393513
  N   -1.650550337  -8.489993974  -1.926565241
  H   -2.084185687  -9.117015313  -1.261992047
  H   -2.096258666  -8.445049984  -2.838009481
  H    0.962160874  -6.515843112  -5.002187354
  H    2.408546934  -8.193334474   0.294638617
  H   -0.016166807  -8.811484938   0.260432802
  H    6.674755230  -4.123163793  -1.102962541
  H   -3.309253769  -3.249377330  -4.340015937
  H   -2.576363305  -0.965939446  -0.004347291
  H    1.377209444  -4.978534310   3.849133754
  H    0.603438255  -9.054881046  -8.161419466
  H   -1.256088810   3.790775153  -6.741254579

