%mem=64gb
%nproc=28       
%Chk=snap_95.chk
# opt b3lyp/6-31g(d,p)  scf=(xqc, tight)  pop=min    

tetra snap_95 

2     1 
  O    2.714386813  -4.723484583  -7.700281699
  C    2.284829305  -3.498075238  -8.304118638
  H    2.808745611  -3.524586171  -9.287837438
  H    2.665099220  -2.649214683  -7.703531909
  C    0.773895929  -3.377009787  -8.501901868
  H    0.525326837  -2.375013938  -8.940070357
  O    0.361874033  -4.329613892  -9.539552874
  C   -0.797160440  -5.052107558  -9.139793801
  H   -1.449749703  -5.141598560 -10.040641731
  C   -0.139887926  -3.649165217  -7.277869464
  H    0.346981881  -4.260462267  -6.484186720
  C   -1.362733018  -4.349437355  -7.901791129
  H   -2.143586449  -3.609179893  -8.179991617
  H   -1.882928724  -5.033338561  -7.196362242
  O   -0.433210318  -2.337223523  -6.778316496
  N   -0.327551455  -6.444089933  -8.769721181
  C   -1.148145859  -7.573341025  -8.546976358
  C   -0.362090659  -8.506276632  -7.809526946
  N    0.917206635  -7.951401096  -7.631944433
  C    0.920567908  -6.713392984  -8.180799917
  N   -2.428934543  -7.797795274  -8.973474684
  C   -2.968976110  -8.983496717  -8.547747976
  N   -2.279889390  -9.925745844  -7.742341417
  C   -0.920600078  -9.718916236  -7.274003428
  N   -4.272245327  -9.251998293  -8.900717787
  H   -4.743124533  -8.620376853  -9.545433164
  H   -4.681728546 -10.167866859  -8.790260320
  O   -0.431890299 -10.535654846  -6.525456183
  H    1.794151254  -5.963629753  -8.208778458
  H   -2.756772082 -10.770073821  -7.399895398
  P   -1.139318581  -2.196253763  -5.280866382
  O   -1.968836294  -0.806740665  -5.641916225
  C   -1.365782528   0.425787648  -5.216318066
  H   -1.707746734   1.144750717  -5.991112613
  H   -0.259553385   0.394449932  -5.221211450
  C   -1.929658317   0.778410799  -3.828136153
  H   -1.298762265   0.391687586  -2.987911910
  O   -1.823718435   2.222737155  -3.641509115
  C   -3.109463785   2.848826295  -3.673676067
  H   -3.100093266   3.579040049  -2.822661291
  C   -3.434467203   0.418813229  -3.711648364
  H   -3.797100005  -0.213547790  -4.562560287
  C   -4.177183778   1.763699291  -3.604213988
  H   -4.717492445   1.792059944  -2.622154750
  H   -4.976236471   1.846265402  -4.361638792
  O   -3.746196835  -0.248836424  -2.478275360
  O   -0.130098469  -2.086578607  -4.202634845
  O   -2.203590047  -3.407650064  -5.460294130
  N   -3.119291333   3.635784394  -4.957456255
  C   -1.996384233   4.242284282  -5.513893300
  C   -2.445546352   5.004386783  -6.639786445
  N   -3.832787402   4.855089308  -6.776511126
  C   -4.225761680   4.054810625  -5.784068860
  N   -0.651299567   4.205525016  -5.146995547
  C    0.220923859   4.994992355  -5.917474687
  N   -0.149833827   5.729412598  -6.954106249
  C   -1.496860443   5.786191249  -7.376338187
  H    1.295626345   4.992905563  -5.626312469
  N   -1.799580312   6.568481641  -8.423227504
  H   -1.086325751   7.124596257  -8.897636595
  H   -2.758360907   6.643975757  -8.766620049
  H   -5.246213367   3.742217699  -5.580150030
  P   -2.991574211  -1.694949057  -2.189660391
  O   -1.811353182  -1.036408131  -1.269289006
  C   -0.644583808  -1.868227202  -1.035437413
  H   -0.223993316  -2.221234490  -2.008705987
  H    0.073808201  -1.169900928  -0.554434388
  C   -1.108857219  -2.978984285  -0.102575758
  H   -1.421621843  -2.600400192   0.900128687
  O   -2.346104779  -3.450146499  -0.742805836
  C   -2.350218101  -4.911535100  -0.865086265
  H   -3.350730317  -5.190622809  -0.447898968
  C   -0.195499966  -4.212203913   0.017789198
  H    0.571659777  -4.244338386  -0.811618096
  C   -1.163174149  -5.408919959  -0.047714439
  H   -0.673133613  -6.317672195  -0.462240940
  H   -1.477666947  -5.711070345   0.977176478
  O    0.430497739  -4.106458338   1.301120551
  O   -2.554376813  -2.358436070  -3.457340153
  O   -4.231070732  -2.382587801  -1.403020180
  N   -2.313753322  -5.264718600  -2.309005491
  C   -1.089368625  -5.519598074  -3.015234150
  N   -1.218596551  -6.072169601  -4.305643181
  C   -2.461116035  -6.323265402  -4.972820013
  C   -3.651311563  -5.838702150  -4.251022873
  C   -3.555494365  -5.355249749  -2.988578748
  O    0.008625223  -5.307075742  -2.531801486
  H   -0.334299453  -6.305756237  -4.809338906
  O   -2.409804658  -6.869971614  -6.055690561
  C   -4.939517935  -5.905662884  -4.992463927
  H   -5.696272666  -5.206863161  -4.610535790
  H   -4.800067210  -5.674664137  -6.062798265
  H   -5.374144817  -6.918480279  -4.947431410
  H   -4.436279818  -4.999913659  -2.431716749
  P    1.833387147  -4.995722357   1.432414585
  O    2.814196236  -4.043834593   0.501731088
  C    3.569123703  -4.735795383  -0.521040579
  H    4.576362846  -4.930420193  -0.091761101
  H    3.102145829  -5.700414925  -0.811667843
  C    3.662814812  -3.761483082  -1.705916524
  H    4.288735396  -2.868396833  -1.475534758
  O    4.416290562  -4.502659195  -2.725672107
  C    3.652628391  -4.679194580  -3.919283136
  H    4.384791855  -4.531613853  -4.749940722
  C    2.326430360  -3.362693921  -2.365523543
  H    1.451319955  -3.893109511  -1.902538379
  C    2.482128254  -3.704525564  -3.855807014
  H    1.522255014  -4.095356328  -4.260406803
  H    2.684290242  -2.792500128  -4.452488970
  O    2.140100838  -1.958552855  -2.174555903
  O    1.761852652  -6.403596595   1.040497654
  O    2.247557606  -4.607942642   2.945663585
  N    3.197184569  -6.129671019  -3.963375386
  C    2.128175411  -6.540303325  -4.839399337
  N    1.775669057  -7.864568917  -4.918006881
  C    2.374614329  -8.799768671  -4.102640878
  C    3.412737280  -8.401035894  -3.187692283
  C    3.806982531  -7.089042656  -3.152790421
  O    1.543801195  -5.692175403  -5.533556813
  N    1.945410122 -10.081609485  -4.262889287
  H    2.299122911 -10.839843697  -3.697613325
  H    1.192833450 -10.302547204  -4.921196670
  H    2.439492859  -4.783220368  -6.735634508
  H    4.624586263  -6.734196192  -2.498972136
  H    3.881954805  -9.135686835  -2.532594652
  H    1.448554168  -1.637583232  -2.819684988
  H   -2.787044630  -3.616198931  -4.634040361
  H   -4.155282333  -2.476005696  -0.400222949
  H    2.354629134  -3.637101595   3.172935823
  H    1.596622661  -8.327234720  -6.964907186
  H   -0.356260555   3.615023501  -4.353027111

