%mem=64gb
%nproc=28       
%Chk=snap_55.chk
# opt b3lyp/6-31g(d,p)  scf=(xqc, tight)  pop=min    

tetra snap_55 

2     1 
  O    0.863979939  -4.449987980  -5.458739105
  C    1.354455571  -4.263883510  -6.783628156
  H    1.565802527  -5.296403850  -7.131553392
  H    2.308957281  -3.705321530  -6.744407610
  C    0.330720039  -3.555521169  -7.689495667
  H    0.620839608  -2.507065309  -7.927269416
  O    0.371088514  -4.228684473  -8.985478193
  C   -0.867143968  -4.884670176  -9.257171615
  H   -0.984110906  -4.860286627 -10.369454535
  C   -1.142650927  -3.638182542  -7.204732832
  H   -1.259585986  -4.315718307  -6.328650619
  C   -1.928413993  -4.182594636  -8.411478904
  H   -2.389747969  -3.336122922  -8.971074343
  H   -2.782765216  -4.821638031  -8.113164173
  O   -1.599604342  -2.306274083  -6.924246312
  N   -0.672489137  -6.325186694  -8.847029199
  C   -0.002307459  -7.295457476  -9.629198837
  C    0.406926822  -8.335942161  -8.740551430
  N   -0.004162319  -7.986595670  -7.445399654
  C   -0.639713289  -6.797117066  -7.512904062
  N    0.185005211  -7.283096866 -10.980210000
  C    0.830774119  -8.392372611 -11.481226839
  N    1.298667120  -9.448579045 -10.671207819
  C    1.119576023  -9.498266218  -9.216619517
  N    1.015905065  -8.450683057 -12.837737982
  H    0.677999644  -7.690040217 -13.424264265
  H    1.483226746  -9.217771194 -13.298512791
  O    1.561393551 -10.452892337  -8.637057685
  H   -1.145113412  -6.289516396  -6.666532643
  H    1.795018344 -10.251842190 -11.085376141
  P   -1.718250644  -1.953798697  -5.301561753
  O   -2.161760036  -0.371660527  -5.481707159
  C   -1.107522434   0.582752592  -5.220853487
  H   -1.160818299   1.284109226  -6.082505561
  H   -0.096283562   0.121628870  -5.201631410
  C   -1.418494545   1.303261716  -3.900734390
  H   -0.597500966   1.191664750  -3.149060710
  O   -1.399134712   2.738634593  -4.180763738
  C   -2.681706794   3.318232422  -3.988665059
  H   -2.493744411   4.303369486  -3.503671236
  C   -2.814839504   0.983105396  -3.299908496
  H   -3.405531659   0.250481741  -3.904285842
  C   -3.529658589   2.339654992  -3.178678515
  H   -3.563272822   2.631253340  -2.098720430
  H   -4.591406239   2.291969786  -3.482190937
  O   -2.668270744   0.509423644  -1.955277053
  O   -0.426969388  -2.197213465  -4.606012838
  O   -3.094110808  -2.771057545  -5.041389880
  N   -3.249726255   3.552151670  -5.362288376
  C   -3.217975230   4.738892653  -6.092325349
  C   -3.709673601   4.432474792  -7.403244139
  N   -4.009268654   3.064196795  -7.484242505
  C   -3.723032525   2.547629210  -6.290521080
  N   -2.846266122   6.041475498  -5.755923854
  C   -2.985713934   7.014418991  -6.768937646
  N   -3.435330457   6.770853306  -7.986218863
  C   -3.819263559   5.470457245  -8.382615495
  H   -2.695249297   8.057914118  -6.506401408
  N   -4.253485969   5.293607384  -9.639770372
  H   -4.310610230   6.071610346 -10.298623421
  H   -4.546373086   4.373713722  -9.971393408
  H   -3.813353434   1.497067947  -6.005623451
  P   -2.207470559  -1.079775690  -1.788942864
  O   -0.700395028  -0.709064542  -1.290757108
  C    0.273478973  -1.788272752  -1.230831689
  H    0.323132771  -2.330026422  -2.206736859
  H    1.225575042  -1.246710945  -1.054868427
  C   -0.163385828  -2.651442212  -0.048013441
  H   -0.130899233  -2.106725401   0.925716809
  O   -1.598037471  -2.838979785  -0.334395390
  C   -1.937968625  -4.253031278  -0.422345269
  H   -2.908934525  -4.314150939   0.128228838
  C    0.448210076  -4.059827088   0.074566465
  H    1.108729738  -4.312214362  -0.796583369
  C   -0.770656348  -4.995583168   0.220120783
  H   -0.581031431  -5.998991751  -0.219564457
  H   -0.979197459  -5.204775882   1.293554860
  O    1.240139184  -4.051683042   1.283315618
  O   -2.357993378  -1.838583151  -3.070571474
  O   -3.319628101  -1.438520675  -0.660262859
  N   -2.152351676  -4.621333310  -1.850293010
  C   -1.047155190  -4.805701710  -2.738336413
  N   -1.337300094  -5.323273076  -4.012294625
  C   -2.648735476  -5.612280397  -4.506175864
  C   -3.736044411  -5.299329429  -3.562860265
  C   -3.474214419  -4.828009241  -2.317640172
  O    0.106544545  -4.562723741  -2.423875287
  H   -0.496712659  -5.482942534  -4.627959799
  O   -2.721043706  -6.039512308  -5.644335161
  C   -5.115743230  -5.490271926  -4.083938356
  H   -5.271954468  -6.523228286  -4.439578173
  H   -5.900255202  -5.282550338  -3.345571119
  H   -5.299934068  -4.834316769  -4.954260179
  H   -4.275592296  -4.577828102  -1.608383337
  P    2.206533945  -5.393391508   1.388449487
  O    3.344184894  -5.029503907   0.275551077
  C    4.324434259  -6.082538911   0.027940231
  H    5.251378305  -5.709477210   0.519240490
  H    4.027929304  -7.063958324   0.456479338
  C    4.517022389  -6.204930013  -1.484433052
  H    5.573360602  -6.506526002  -1.699523347
  O    3.727083409  -7.339247634  -1.946717477
  C    2.985283894  -6.996274403  -3.133202707
  H    3.462386530  -7.554454490  -3.978562814
  C    4.097822593  -4.968011579  -2.325180477
  H    3.786903971  -4.102978248  -1.691871875
  C    3.002941326  -5.473026856  -3.272789773
  H    2.013183985  -5.021348236  -3.032618427
  H    3.171055575  -5.153162402  -4.320688815
  O    5.216068331  -4.440455742  -3.019877120
  O    1.502313635  -6.673404369   1.180062212
  O    2.966899618  -5.140702424   2.798299699
  N    1.602009063  -7.547148251  -2.944129601
  C    0.839711652  -7.874048497  -4.143275930
  N   -0.458093006  -8.327450826  -4.008304921
  C   -0.991739857  -8.499530554  -2.761185384
  C   -0.232026891  -8.238289682  -1.573329652
  C    1.056963771  -7.771596238  -1.690264570
  O    1.371004517  -7.712565136  -5.239093613
  N   -2.327860268  -8.849474734  -2.708139799
  H   -2.707829203  -9.243312176  -1.858740667
  H   -2.785920995  -9.144825470  -3.566219428
  H    0.720617480  -3.557885101  -4.990769061
  H    1.691448674  -7.569882951  -0.801904224
  H   -0.641230511  -8.448758156  -0.586775965
  H    5.593801012  -5.073994280  -3.667754416
  H   -3.372977440  -2.877355686  -4.054408811
  H   -3.029511615  -1.453230733   0.303013377
  H    2.558129800  -5.494668184   3.637759033
  H    0.268938267  -8.465041202  -6.557970821
  H   -2.456459149   6.269452715  -4.838349007

