%mem=64gb
%nproc=28       
%Chk=snap_113.chk
# opt b3lyp/6-31g(d,p)  scf=(xqc, tight)  pop=min    

tetra snap_113 

2     1 
  O    2.987066484  -3.944095023  -6.037849764
  C    2.990685337  -3.708129777  -7.440134791
  H    3.345623848  -4.667159422  -7.876227561
  H    3.718057413  -2.916775355  -7.699246351
  C    1.581760590  -3.369889777  -7.948494134
  H    1.546191470  -2.381993469  -8.462444086
  O    1.273972889  -4.352838174  -9.000785253
  C   -0.068417092  -4.814965054  -8.893549976
  H   -0.510382772  -4.769853001  -9.919308749
  C    0.426772214  -3.500399802  -6.925783603
  H    0.690320162  -4.181794827  -6.075014519
  C   -0.747361525  -4.011633866  -7.782498061
  H   -1.334769671  -3.165952400  -8.197263994
  H   -1.488780013  -4.598646012  -7.193771609
  O    0.190087968  -2.162074517  -6.448371040
  N   -0.012860443  -6.272796519  -8.496001071
  C   -1.060734466  -7.197301369  -8.705967966
  C   -0.793622782  -8.317866998  -7.867384277
  N    0.392354274  -8.059081937  -7.162693048
  C    0.846157234  -6.833043592  -7.532237342
  N   -2.121048862  -7.076872167  -9.560832116
  C   -2.998078951  -8.132449973  -9.530198528
  N   -2.827909369  -9.267726039  -8.705922014
  C   -1.708194966  -9.430466526  -7.783025374
  N   -4.113455691  -8.054270750 -10.331375503
  H   -4.204093188  -7.271242695 -10.974652107
  H   -4.726612150  -8.841060149 -10.486611362
  O   -1.681347453 -10.421027931  -7.098285303
  H    1.748890792  -6.327749886  -7.152044288
  H   -3.533323845 -10.017625239  -8.690392908
  P   -0.735953271  -2.013909016  -5.083636963
  O   -1.767618254  -0.838205145  -5.624658666
  C   -1.374275174   0.515860834  -5.345630191
  H   -1.908668862   1.086116133  -6.135946690
  H   -0.285451617   0.676386311  -5.463601746
  C   -1.873204609   0.891619430  -3.938145385
  H   -1.153669118   0.613986095  -3.128085560
  O   -1.896225632   2.348899843  -3.842015663
  C   -3.235289531   2.850342128  -3.771953306
  H   -3.234904911   3.566774824  -2.908452655
  C   -3.323738467   0.399689184  -3.698457178
  H   -3.658990116  -0.337601020  -4.472540540
  C   -4.193788510   1.668598315  -3.656796841
  H   -4.749752280   1.690462824  -2.684674971
  H   -4.978220779   1.636547587  -4.435193698
  O   -3.483391609  -0.167408154  -2.387178211
  O    0.142797810  -1.634841449  -3.945113090
  O   -1.530828430  -3.421055291  -5.190407188
  N   -3.428418169   3.644932495  -5.035011418
  C   -2.414184082   4.238613130  -5.778859266
  C   -3.046582798   5.019533857  -6.799706585
  N   -4.438302159   4.904864106  -6.677370655
  C   -4.660596796   4.102462886  -5.635944069
  N   -1.026072607   4.172450121  -5.664583226
  C   -0.293906013   4.942600814  -6.585929222
  N   -0.833253942   5.683625321  -7.540493693
  C   -2.233366882   5.776997847  -7.703815141
  H    0.815664356   4.915149414  -6.500450062
  N   -2.708450682   6.563547141  -8.680958269
  H   -2.084848540   7.093356557  -9.291462826
  H   -3.712898462   6.667778820  -8.832881499
  H   -5.633113261   3.812436669  -5.245232520
  P   -2.800909353  -1.652103155  -2.129523001
  O   -1.670925645  -1.143495340  -1.070833391
  C   -0.505424691  -2.009868017  -0.964329587
  H   -0.068199074  -2.207959259  -1.972948999
  H    0.205109396  -1.390051544  -0.376571418
  C   -0.986505382  -3.235160892  -0.200571603
  H   -1.253650268  -2.985944578   0.855648944
  O   -2.256540915  -3.580186711  -0.858076387
  C   -2.410873498  -5.047164223  -0.944953445
  H   -3.411069368  -5.221993671  -0.478192461
  C   -0.149122710  -4.528796862  -0.262518305
  H    0.445774129  -4.624780616  -1.214899851
  C   -1.230623027  -5.623406730  -0.163259532
  H   -0.859452822  -6.606050196  -0.535261306
  H   -1.493054473  -5.814964779   0.899687956
  O    0.671905259  -4.531255454   0.907623167
  O   -2.323392918  -2.247486653  -3.418630727
  O   -4.090214879  -2.347923754  -1.432435648
  N   -2.472223563  -5.403386949  -2.385882698
  C   -1.349234175  -5.968888469  -3.080295121
  N   -1.528044338  -6.280868546  -4.438099037
  C   -2.734705652  -6.076693557  -5.180799411
  C   -3.839134098  -5.494735076  -4.391718601
  C   -3.689943990  -5.182729230  -3.080978504
  O   -0.284839808  -6.168141567  -2.521063569
  H   -0.671500396  -6.645453665  -4.926968602
  O   -2.721883822  -6.365463031  -6.359977632
  C   -5.121540409  -5.276440789  -5.115225024
  H   -5.813923613  -6.121509061  -4.960976730
  H   -5.641062204  -4.362422831  -4.796206961
  H   -4.964549623  -5.195772857  -6.205230471
  H   -4.502743337  -4.728694058  -2.493152329
  P    2.239403146  -5.025541343   0.676854394
  O    2.760085147  -3.631755876  -0.034637203
  C    4.078910761  -3.645677454  -0.640328962
  H    4.524845452  -2.697930549  -0.265568010
  H    4.696200940  -4.503317231  -0.300886587
  C    3.961962057  -3.639194736  -2.168774171
  H    4.824188221  -3.103799275  -2.638857266
  O    4.109540991  -5.023346710  -2.612025050
  C    3.056740756  -5.336482046  -3.546627126
  H    3.509846482  -5.258935115  -4.574944671
  C    2.608406329  -3.111700065  -2.706641729
  H    2.021224790  -2.576502007  -1.931136786
  C    1.913680908  -4.348500061  -3.276739516
  H    1.170487670  -4.770291921  -2.558772328
  H    1.343599775  -4.160412173  -4.206462186
  O    2.912549160  -2.175562468  -3.755118074
  O    2.501862072  -6.283343598  -0.018726381
  O    2.760432772  -4.909971407   2.207916387
  N    2.635506456  -6.757981462  -3.349632194
  C    1.689314678  -7.265091064  -4.316126760
  N    1.341309255  -8.594435423  -4.312157700
  C    1.798719267  -9.400276104  -3.289997445
  C    2.644729945  -8.880322832  -2.254754213
  C    3.051002938  -7.567074830  -2.298159583
  O    1.230553081  -6.480226695  -5.162489721
  N    1.401918449 -10.708179638  -3.330689789
  H    1.693352784 -11.373908109  -2.632378170
  H    0.802573792 -11.047492337  -4.072988003
  H    3.039107483  -3.093865644  -5.506105751
  H    3.715270958  -7.108883342  -1.538874681
  H    2.958444808  -9.514047664  -1.425935145
  H    2.056129619  -1.715787087  -4.019050356
  H   -2.185434267  -3.621790950  -4.409419963
  H   -4.026280186  -2.554306983  -0.446360930
  H    2.449548776  -4.135400650   2.757480279
  H    0.757855399  -8.643565223  -6.392753452
  H   -0.607712433   3.605160830  -4.908806179

