%mem=64gb
%nproc=28       
%Chk=snap_143.chk
# opt b3lyp/6-31g(d,p)  scf=(xqc, tight)  pop=min    

tetra snap_143 

2     1 
  O    1.709491665  -2.676468937  -4.904276514
  C    1.448546362  -3.777799380  -5.766842759
  H    0.928446419  -4.573244030  -5.201606982
  H    2.470019861  -4.150037687  -6.020023433
  C    0.704394842  -3.322690767  -7.028307954
  H    0.979703033  -2.273376773  -7.299798848
  O    1.191483158  -4.113706530  -8.164536977
  C    0.125641597  -4.770841503  -8.839815945
  H    0.344578494  -4.704825476  -9.932164574
  C   -0.831984875  -3.520629561  -6.995731651
  H   -1.179957384  -4.139383632  -6.137863283
  C   -1.188735437  -4.170044548  -8.340558563
  H   -1.576369034  -3.397923876  -9.043558379
  H   -2.021072046  -4.902141874  -8.253534796
  O   -1.435560244  -2.207783739  -6.986317266
  N    0.243909148  -6.226192315  -8.430814395
  C   -0.708625190  -7.252455863  -8.607237257
  C   -0.308165740  -8.322291421  -7.751034716
  N    0.892235981  -7.958728567  -7.128657227
  C    1.207717792  -6.701384042  -7.517530670
  N   -1.785570019  -7.287222945  -9.448541138
  C   -2.544292620  -8.429481940  -9.358228875
  N   -2.274959701  -9.486793562  -8.452452418
  C   -1.145161368  -9.475157801  -7.542053553
  N   -3.633254875  -8.535274462 -10.186559526
  H   -3.805422138  -7.809045617 -10.879322550
  H   -4.176479627  -9.382627207 -10.269089990
  O   -1.037571318 -10.371391344  -6.735211570
  H    2.094006008  -6.123502074  -7.198588376
  H   -2.930697324 -10.273952285  -8.354660117
  P   -2.063417851  -1.759769116  -5.527488353
  O   -2.890332145  -0.411329311  -5.975741836
  C   -2.094336821   0.765710892  -6.225298955
  H   -2.851620643   1.458171225  -6.655166300
  H   -1.323636543   0.567136015  -6.997238182
  C   -1.488174224   1.330147255  -4.930275227
  H   -0.481294755   0.896483170  -4.684842052
  O   -1.193175931   2.741169714  -5.184708228
  C   -1.939248125   3.595822919  -4.316120140
  H   -1.203285400   4.360213303  -3.952845225
  C   -2.445389260   1.282902967  -3.710654258
  H   -3.424860642   0.793509704  -3.936726478
  C   -2.585948640   2.739802445  -3.235578949
  H   -2.036642142   2.847161836  -2.260420680
  H   -3.626834392   3.001005728  -2.979549501
  O   -1.758972105   0.639392493  -2.617845027
  O   -0.945581939  -1.519036701  -4.533738169
  O   -3.119513216  -2.982318811  -5.364443317
  N   -2.932845596   4.298328912  -5.200595487
  C   -2.617828031   4.928267025  -6.401888944
  C   -3.813088528   5.566406312  -6.865377628
  N   -4.856057128   5.312199697  -5.963503172
  C   -4.336122256   4.564917620  -4.989357592
  N   -1.424948973   5.007182888  -7.120057324
  C   -1.465258243   5.770315962  -8.303110827
  N   -2.539854026   6.392519059  -8.758387515
  C   -3.774443567   6.334358045  -8.074254606
  H   -0.519305516   5.853949325  -8.885504305
  N   -4.821607540   6.993536768  -8.591871288
  H   -4.739786433   7.534148153  -9.454228770
  H   -5.731819631   6.983676182  -8.128171349
  H   -4.863980750   4.187212326  -4.117034567
  P   -1.986890153  -0.978037454  -2.477187892
  O   -0.466788902  -1.408257582  -2.108308662
  C   -0.103615208  -2.800940116  -2.090875209
  H   -0.442630397  -3.315461832  -3.009646143
  H    1.009640052  -2.708576876  -2.108589654
  C   -0.595021343  -3.486756245  -0.809922039
  H   -0.597889251  -2.801709477   0.074626024
  O   -1.999615016  -3.843777264  -1.011009734
  C   -2.154911819  -5.263289516  -1.151510892
  H   -3.151407588  -5.475879547  -0.692288667
  C    0.142495292  -4.813804907  -0.491468999
  H    0.935202464  -5.061679752  -1.254662384
  C   -0.959457033  -5.891461105  -0.438621752
  H   -0.610936167  -6.852287843  -0.875297711
  H   -1.225129954  -6.138833143   0.613479398
  O    0.748050463  -4.604728516   0.793817288
  O   -2.951503865  -1.582488163  -3.479941582
  O   -2.727982438  -1.042392899  -1.017572367
  N   -2.229885526  -5.583717208  -2.622790388
  C   -1.074800445  -5.913104485  -3.386530194
  N   -1.286739879  -6.366818060  -4.709275787
  C   -2.561489963  -6.393057625  -5.368573420
  C   -3.676943357  -5.889408607  -4.552311214
  C   -3.496304249  -5.529376234  -3.257471855
  O    0.065881377  -5.810988033  -2.964676181
  H   -0.458526934  -6.775689245  -5.171340025
  O   -2.577905737  -6.795751540  -6.514007468
  C   -4.986293944  -5.787681571  -5.251061461
  H   -5.837194640  -5.644276689  -4.571985740
  H   -4.981514606  -4.943330520  -5.964584598
  H   -5.197319551  -6.695753946  -5.842631978
  H   -4.325725200  -5.172094710  -2.630318902
  P    1.880497991  -5.733671815   1.236296157
  O    3.214107932  -4.783997624   1.190359616
  C    4.441769428  -5.367442893   0.688403828
  H    5.194987557  -4.936244658   1.388157819
  H    4.459194017  -6.474741035   0.769132422
  C    4.712959837  -4.919398942  -0.751558093
  H    5.779094310  -4.598202166  -0.854552476
  O    4.623513498  -6.107117649  -1.596488353
  C    3.828141799  -5.840830251  -2.763635286
  H    4.533122651  -5.802345866  -3.632131956
  C    3.747425032  -3.851375050  -1.334662985
  H    3.059660899  -3.429260084  -0.561465826
  C    3.049269564  -4.547236721  -2.509725694
  H    1.977459145  -4.770290290  -2.296085028
  H    3.005654461  -3.892852799  -3.411541402
  O    4.457995600  -2.693268760  -1.730629092
  O    1.898263233  -6.979948732   0.457173797
  O    1.560708993  -5.838340811   2.820859777
  N    2.928317810  -7.027701902  -2.965029954
  C    2.313462343  -7.157771274  -4.270215166
  N    1.502268584  -8.252825153  -4.519517582
  C    1.234548864  -9.165381747  -3.524367020
  C    1.805775537  -9.012775234  -2.220767549
  C    2.645518021  -7.953504325  -1.966261721
  O    2.525321719  -6.302896009  -5.126639550
  N    0.373125208 -10.175691854  -3.858126677
  H    0.196006706 -10.945200752  -3.229188072
  H    0.025337189 -10.274432653  -4.812047364
  H    0.870339817  -2.193903714  -4.649185022
  H    3.129619511  -7.800378715  -0.980307337
  H    1.584345103  -9.724621331  -1.425016172
  H    5.031574127  -2.844473240  -2.513028792
  H   -3.643402717  -2.988617292  -4.477122932
  H   -2.880590104  -1.963486500  -0.649264224
  H    1.642974074  -5.008527011   3.377851534
  H    1.331529874  -8.484754529  -6.326670735
  H   -0.598718521   4.480674850  -6.807006152

