%mem=64gb
%nproc=28       
%Chk=snap_51.chk
# opt b3lyp/6-31g(d,p)  scf=(xqc, tight)  pop=min    

tetra snap_51 

2     1 
  O    1.196688609  -4.344426618  -6.374536708
  C    1.561272932  -3.602850144  -7.540309522
  H    2.103688869  -4.345711460  -8.165061870
  H    2.252459943  -2.786229941  -7.262394843
  C    0.333950488  -3.071025461  -8.298162280
  H    0.431574267  -1.996366086  -8.572769032
  O    0.306728844  -3.751985131  -9.595780514
  C   -0.840207522  -4.579057739  -9.708508930
  H   -1.093744932  -4.606643366 -10.797040292
  C   -1.034621435  -3.370753957  -7.632780554
  H   -0.921082125  -4.065258488  -6.770526846
  C   -1.881879543  -4.025405919  -8.740384396
  H   -2.512761291  -3.249610794  -9.235260554
  H   -2.615648635  -4.755196288  -8.348702918
  O   -1.630173809  -2.124711623  -7.258951614
  N   -0.382641796  -5.978773107  -9.326612858
  C    0.629019022  -6.688964630 -10.020581731
  C    0.982075866  -7.805282419  -9.206760263
  N    0.186905857  -7.759796935  -8.048496323
  C   -0.615756273  -6.668229582  -8.126063846
  N    1.152341067  -6.412516909 -11.248104060
  C    2.119902870  -7.293870850 -11.677531515
  N    2.559544058  -8.398273815 -10.913341646
  C    2.010168851  -8.738932798  -9.603941575
  N    2.676249542  -7.060723535 -12.906086615
  H    2.354965073  -6.266984148 -13.458861596
  H    3.379149354  -7.657224298 -13.317376246
  O    2.456635712  -9.700459854  -9.035573553
  H   -1.398957293  -6.380447413  -7.352779682
  H    3.305920396  -9.018865667 -11.261736403
  P   -1.683544056  -1.889295525  -5.603648239
  O   -2.299023277  -0.357403645  -5.664963656
  C   -1.329072112   0.698981826  -5.509368905
  H   -1.583698542   1.415474814  -6.320795924
  H   -0.282322198   0.359364736  -5.655920429
  C   -1.526748668   1.338447679  -4.125943856
  H   -0.637933129   1.203999347  -3.459041500
  O   -1.559457256   2.787417833  -4.333459129
  C   -2.821710140   3.330253560  -3.974701618
  H   -2.597670387   4.293208361  -3.459869041
  C   -2.858192924   0.955742102  -3.420190226
  H   -3.491560177   0.252734585  -4.017117942
  C   -3.561910284   2.294262958  -3.132924102
  H   -3.461494719   2.518982485  -2.039807609
  H   -4.653314787   2.253709813  -3.297979086
  O   -2.605190815   0.398271995  -2.125188336
  O   -0.334703140  -2.090677606  -5.019734805
  O   -2.955930673  -2.861949093  -5.337196447
  N   -3.545604270   3.626427975  -5.261177818
  C   -3.577127445   4.836718067  -5.949767238
  C   -4.322576094   4.610104242  -7.153401170
  N   -4.705506309   3.262628545  -7.221178071
  C   -4.233876234   2.685310028  -6.116997988
  N   -3.057801827   6.099268001  -5.658941283
  C   -3.311067959   7.113116178  -6.607365950
  N   -4.006345847   6.947095016  -7.717804845
  C   -4.558988213   5.692875570  -8.059076672
  H   -2.892254586   8.122075796  -6.387823791
  N   -5.263497280   5.597848369  -9.197052702
  H   -5.403679023   6.404141299  -9.807615144
  H   -5.685864145   4.713044515  -9.481174487
  H   -4.325259567   1.631271075  -5.854852052
  P   -1.993544873  -1.147195230  -2.091243768
  O   -0.467766384  -0.643231132  -1.799439924
  C    0.595720040  -1.627235359  -1.901422378
  H    0.565114712  -2.138756535  -2.897811563
  H    1.512938050  -1.010546720  -1.825841988
  C    0.383290381  -2.554058360  -0.707224079
  H    0.433610938  -2.023428452   0.275077771
  O   -1.033675636  -2.925491281  -0.859915190
  C   -1.187848538  -4.366326244  -1.025763145
  H   -2.042051641  -4.612456162  -0.346201379
  C    1.197836033  -3.860194617  -0.672459564
  H    1.909926835  -3.947540798  -1.531546595
  C    0.149468869  -4.982463723  -0.632517344
  H    0.465077922  -5.805903921  -1.315139083
  H    0.064355915  -5.466784296   0.375592746
  O    1.978669897  -3.767392727   0.538142791
  O   -2.246577141  -1.865825739  -3.379151823
  O   -2.884432373  -1.621256110  -0.823535586
  N   -1.575992032  -4.651965483  -2.434618247
  C   -0.576500699  -4.724150612  -3.453227802
  N   -0.983735096  -5.263167493  -4.694742027
  C   -2.298977894  -5.736490780  -4.988933766
  C   -3.269723498  -5.600210553  -3.900692848
  C   -2.892390997  -5.111771991  -2.690922046
  O    0.574821399  -4.355384324  -3.285014728
  H   -0.231646794  -5.360128455  -5.409625394
  O   -2.485079242  -6.168528396  -6.121687756
  C   -4.659330371  -6.059556522  -4.172647754
  H   -5.411526531  -5.304870838  -3.904622374
  H   -4.811528079  -6.295740901  -5.240581393
  H   -4.890887770  -6.984142751  -3.616336393
  H   -3.596635197  -5.044813054  -1.849661802
  P    2.680259436  -5.161851538   1.069069049
  O    3.633119617  -5.547941435  -0.200486082
  C    4.322742792  -6.828327339  -0.085229412
  H    5.398635646  -6.538888841  -0.071160281
  H    4.070384974  -7.384159379   0.841614737
  C    3.995598776  -7.675573500  -1.316445798
  H    4.847340601  -8.370058453  -1.528762366
  O    2.900704053  -8.580705709  -0.992891838
  C    1.791810255  -8.410903707  -1.895764861
  H    1.692898227  -9.383692676  -2.437027288
  C    3.581609734  -6.871325165  -2.576272541
  H    3.791544744  -5.778398157  -2.486299381
  C    2.098603461  -7.200590637  -2.786607909
  H    1.463383357  -6.321210007  -2.532770088
  H    1.860693314  -7.395747959  -3.849691713
  O    4.380618985  -7.237690580  -3.689400349
  O    1.758120619  -6.214361744   1.536071254
  O    3.727562345  -4.559592616   2.157312453
  N    0.553702895  -8.217172651  -1.066553624
  C   -0.715109291  -7.940085596  -1.777657068
  N   -1.850140701  -7.753003508  -1.016481298
  C   -1.801017649  -7.894902686   0.342485209
  C   -0.580402904  -8.169403911   1.037071066
  C    0.582375222  -8.316535821   0.318220128
  O   -0.646688625  -7.829030631  -2.990198807
  N   -2.981274249  -7.652115586   1.024481833
  H   -3.065381925  -7.946381576   1.988105508
  H   -3.850390970  -7.635108752   0.502589622
  H    1.049655543  -3.733474795  -5.589629480
  H    1.558179184  -8.501846157   0.801971216
  H   -0.551787085  -8.229512321   2.124591415
  H    4.282000461  -8.184779062  -3.926945746
  H   -3.170660548  -3.054623759  -4.351777715
  H   -2.416071896  -1.818357590   0.047120364
  H    3.442665371  -4.515306973   3.114542981
  H    0.216774607  -8.457537903  -7.309924852
  H   -2.484058463   6.265358354  -4.828003055

