%mem=64gb
%nproc=28       
%Chk=snap_76.chk
# opt b3lyp/6-31g(d,p)  scf=(xqc, tight)  pop=min    

tetra snap_76 

2     1 
  O    1.677700580  -4.159502646  -6.118603408
  C    1.872260187  -3.149078151  -7.106865336
  H    2.803270923  -3.478045712  -7.621989106
  H    2.041723380  -2.171729870  -6.617770615
  C    0.710207743  -3.067603847  -8.100856515
  H    0.720729215  -2.105526873  -8.662643902
  O    0.912863825  -4.093474137  -9.136696687
  C   -0.278580281  -4.837037780  -9.352314565
  H   -0.359943549  -5.008601508 -10.451974402
  C   -0.690872200  -3.366423469  -7.512903968
  H   -0.607322055  -4.024425511  -6.616119743
  C   -1.422165742  -4.097098795  -8.648546240
  H   -1.930086207  -3.376064446  -9.322498127
  H   -2.235661002  -4.756841704  -8.276327908
  O   -1.332893690  -2.118262138  -7.229433755
  N   -0.084921826  -6.189005078  -8.692156668
  C   -0.975352346  -7.273960180  -8.837346422
  C   -0.656988913  -8.206312500  -7.808394507
  N    0.421281889  -7.688886741  -7.077635428
  C    0.740886842  -6.474537973  -7.586215454
  N   -1.956789174  -7.447083914  -9.777306000
  C   -2.679315737  -8.603528500  -9.642484985
  N   -2.473004475  -9.544770532  -8.601279130
  C   -1.464588181  -9.373853455  -7.569906320
  N   -3.688243670  -8.832612448 -10.547552614
  H   -3.804461492  -8.191118628 -11.330176273
  H   -4.166490890  -9.718868912 -10.614702292
  O   -1.425306456 -10.176185275  -6.664257642
  H    1.540431488  -5.798139516  -7.191111019
  H   -3.085384421 -10.366429672  -8.508117340
  P   -1.703202877  -1.961129254  -5.607644758
  O   -2.371381012  -0.454145115  -5.694548179
  C   -1.481516765   0.662624591  -5.549365006
  H   -1.874054409   1.387281021  -6.294772602
  H   -0.429205885   0.424196731  -5.797233949
  C   -1.622149320   1.207092994  -4.116653210
  H   -0.790252282   0.885733663  -3.440875111
  O   -1.439122010   2.659779430  -4.196782561
  C   -2.600466937   3.362539014  -3.745434544
  H   -2.210174059   4.174970927  -3.078582215
  C   -3.023616676   0.963764888  -3.496309718
  H   -3.711032357   0.405845188  -4.180203982
  C   -3.552194334   2.358155000  -3.109377045
  H   -3.539722119   2.442252913  -1.990950811
  H   -4.616368325   2.478661092  -3.379674996
  O   -2.933645292   0.290914009  -2.236014437
  O   -0.470727980  -2.188253121  -4.813365393
  O   -2.978105593  -2.966210021  -5.605204126
  N   -3.193252864   4.012659060  -4.967988491
  C   -2.508921541   4.355861488  -6.127229473
  C   -3.456568960   4.978426965  -7.003640954
  N   -4.709979977   5.022337151  -6.378471338
  C   -4.552304948   4.455964052  -5.181895363
  N   -1.173700427   4.193816361  -6.496336648
  C   -0.821898725   4.679012824  -7.769037190
  N   -1.663854976   5.250581329  -8.614656457
  C   -3.024850296   5.441775018  -8.287672268
  H    0.240916158   4.563601708  -8.078317889
  N   -3.820369685   6.034670497  -9.190690843
  H   -3.463175595   6.349772893 -10.093494430
  H   -4.808155786   6.201717676  -8.991568495
  H   -5.320336734   4.338781786  -4.421235477
  P   -2.485327038  -1.304785451  -2.207145736
  O   -0.972981353  -0.947021333  -1.701441509
  C    0.011365798  -2.014856871  -1.685114915
  H    0.089278659  -2.493684277  -2.694665327
  H    0.953701185  -1.478147911  -1.453712575
  C   -0.453992043  -2.940503715  -0.565258967
  H   -0.519871296  -2.416342500   0.422337937
  O   -1.851115267  -3.203946798  -0.940380220
  C   -2.081134897  -4.628687471  -1.131791068
  H   -3.075287417  -4.785856243  -0.643799166
  C    0.233551827  -4.308402193  -0.398268653
  H    1.038101875  -4.496375061  -1.163090729
  C   -0.907236362  -5.342595129  -0.460704386
  H   -0.590117291  -6.274402150  -0.977897333
  H   -1.190602950  -5.681046426   0.561627686
  O    0.794761470  -4.233149333   0.924831471
  O   -2.638355333  -1.979577802  -3.532674676
  O   -3.571863285  -1.744541938  -1.087106650
  N   -2.195015701  -4.917122808  -2.587704066
  C   -1.032482304  -5.054450161  -3.409778007
  N   -1.237013824  -5.579108744  -4.702760194
  C   -2.517570109  -5.872470299  -5.286365271
  C   -3.662785711  -5.595201243  -4.400568398
  C   -3.483411096  -5.149536993  -3.133002564
  O    0.089929747  -4.775964706  -3.024678140
  H   -0.383871704  -5.883446580  -5.200444281
  O   -2.515982136  -6.299283604  -6.421489040
  C   -5.005154637  -5.834614224  -4.994533354
  H   -5.821314196  -5.821190273  -4.260294717
  H   -5.236948507  -5.077847477  -5.764939156
  H   -5.048048641  -6.813951585  -5.502458264
  H   -4.329113402  -4.943077321  -2.461828005
  P    1.884019020  -5.414355254   1.324488948
  O    3.250673562  -4.559941785   1.029984677
  C    4.444921472  -5.292046230   0.658189987
  H    5.216302260  -4.830585038   1.316396132
  H    4.376386491  -6.379555686   0.871049164
  C    4.769056129  -5.049672970  -0.817904055
  H    5.877172889  -4.984824576  -0.957226582
  O    4.391121162  -6.253005055  -1.549685102
  C    3.649877618  -5.906475824  -2.735079385
  H    4.343514294  -6.053223430  -3.603075186
  C    4.044498506  -3.845520052  -1.481273423
  H    3.498331488  -3.211445038  -0.741766221
  C    3.153694755  -4.466370475  -2.564057377
  H    2.073615985  -4.433568223  -2.284176954
  H    3.190753816  -3.906128646  -3.521767642
  O    4.980871077  -2.924448015  -2.014025671
  O    1.713514513  -6.714508742   0.666221309
  O    1.750489551  -5.367023008   2.938536294
  N    2.539112243  -6.902590201  -2.869207580
  C    1.926713188  -6.998046166  -4.186177880
  N    0.960299612  -7.971863533  -4.390355599
  C    0.576309790  -8.809844257  -3.373695350
  C    1.154805073  -8.686564048  -2.068047798
  C    2.143324045  -7.755797742  -1.847529545
  O    2.264403066  -6.227251436  -5.070584875
  N   -0.411190436  -9.711168793  -3.679974522
  H   -0.639124484 -10.467740720  -3.051308581
  H   -0.724889623  -9.819213542  -4.646685767
  H    1.055008767  -3.869093591  -5.404885591
  H    2.656708291  -7.652993333  -0.867821194
  H    0.837271972  -9.335724936  -1.252097091
  H    5.527944673  -3.311251226  -2.732577354
  H   -3.397322241  -3.145341594  -4.686840693
  H   -3.251526230  -1.941667875  -0.154418360
  H    1.914611245  -4.493471783   3.401381940
  H    0.795430656  -8.124630825  -6.191525467
  H   -0.515609428   3.753991421  -5.834849004

