%mem=64gb
%nproc=28       
%Chk=snap_44.chk
# opt b3lyp/6-31g(d,p)  scf=(xqc, tight)  pop=min    

tetra snap_44 

2     1 
  O    1.172112941  -4.141353679  -6.620097193
  C    1.415729666  -3.414079724  -7.823649117
  H    1.902218536  -4.157380203  -8.490757660
  H    2.128614216  -2.593420216  -7.622915867
  C    0.114707880  -2.892937078  -8.457140531
  H    0.146211382  -1.799547740  -8.664819538
  O    0.017923187  -3.488653122  -9.791108480
  C   -1.090958479  -4.370944317  -9.871269227
  H   -1.431950351  -4.338097003 -10.936196668
  C   -1.186766113  -3.296358641  -7.714508791
  H   -0.983833692  -4.012628704  -6.886785516
  C   -2.077916505  -3.947969102  -8.787965201
  H   -2.802489551  -3.193436272  -9.176519423
  H   -2.720853369  -4.752424644  -8.381721966
  O   -1.819810990  -2.096554190  -7.257288277
  N   -0.528947312  -5.761932068  -9.628591626
  C    0.351804941  -6.415263948 -10.526530588
  C    0.892004014  -7.535999799  -9.831494206
  N    0.343269608  -7.544467727  -8.537158424
  C   -0.492198424  -6.480548070  -8.421635328
  N    0.625511891  -6.077380945 -11.817901986
  C    1.525580436  -6.905130852 -12.454007997
  N    2.128135526  -8.020088060 -11.829929264
  C    1.845111291  -8.425109692 -10.454963451
  N    1.841963599  -6.607412137 -13.751650019
  H    1.408545409  -5.802598179 -14.201921627
  H    2.490172985  -7.151769317 -14.302554648
  O    2.410471724  -9.393606431 -10.022667369
  H   -1.106138745  -6.230274701  -7.505681982
  H    2.803547711  -8.610617283 -12.339133788
  P   -1.718391350  -1.879889011  -5.604227216
  O   -2.196698673  -0.295261942  -5.629469502
  C   -1.118829169   0.647209072  -5.413613094
  H   -1.163503036   1.330482394  -6.290243679
  H   -0.116276674   0.163705424  -5.385417711
  C   -1.404420405   1.403412249  -4.110386695
  H   -0.531209697   1.384263903  -3.409269643
  O   -1.516582500   2.823098762  -4.451763314
  C   -2.789809738   3.340736583  -4.094419837
  H   -2.592408317   4.345656269  -3.657407206
  C   -2.729097094   1.006071159  -3.401178756
  H   -3.351585833   0.280062394  -3.982443324
  C   -3.464054839   2.335767937  -3.161076613
  H   -3.334287408   2.626947202  -2.088958887
  H   -4.557789370   2.247624217  -3.291531887
  O   -2.452335170   0.472604316  -2.101333295
  O   -0.339722154  -2.160963731  -5.124199522
  O   -3.008945890  -2.789924397  -5.241051687
  N   -3.553771233   3.509369817  -5.381497579
  C   -3.835638682   4.693752379  -6.058292982
  C   -4.473779885   4.325659725  -7.289032631
  N   -4.549442900   2.927630333  -7.378518221
  C   -3.995636450   2.451894431  -6.264414519
  N   -3.631081989   6.037158446  -5.736990272
  C   -4.078520980   6.982999312  -6.683789042
  N   -4.674806065   6.682515002  -7.822996061
  C   -4.909217252   5.341337140  -8.198233392
  H   -3.912621811   8.057113276  -6.438659609
  N   -5.517475496   5.110931265  -9.372311974
  H   -5.813202288   5.877308561  -9.978838763
  H   -5.704671006   4.159492083  -9.689765723
  H   -3.856446537   1.397529803  -6.008857274
  P   -1.854752339  -1.081363104  -2.073772299
  O   -0.313401526  -0.595838323  -1.832297038
  C    0.734878223  -1.598032198  -1.920330844
  H    0.693594269  -2.125063327  -2.907437204
  H    1.660448780  -0.991790568  -1.858219964
  C    0.515104957  -2.506762153  -0.712521578
  H    0.557845843  -1.956951955   0.259714121
  O   -0.900261904  -2.878367338  -0.870633368
  C   -1.050283742  -4.321033987  -1.036752593
  H   -1.924524825  -4.562060998  -0.380268654
  C    1.329373776  -3.815612670  -0.642976661
  H    2.051362233  -3.926176491  -1.492493583
  C    0.275659839  -4.930454316  -0.592057279
  H    0.602083598  -5.781008242  -1.242339025
  H    0.150458476  -5.380628762   0.428058002
  O    2.130916656  -3.687604618   0.547157631
  O   -2.141926225  -1.803934658  -3.353165950
  O   -2.721683859  -1.531951157  -0.782905222
  N   -1.394151667  -4.611359291  -2.455904200
  C   -0.359339067  -4.693402717  -3.440207246
  N   -0.727110983  -5.234705549  -4.692960128
  C   -2.031610199  -5.703481107  -5.031989868
  C   -3.029149210  -5.597640623  -3.965210737
  C   -2.691797255  -5.104831063  -2.744423435
  O    0.785669802  -4.327600002  -3.235194884
  H    0.036949231  -5.294860999  -5.395922318
  O   -2.180110522  -6.107814905  -6.180912518
  C   -4.398921036  -6.098237905  -4.266229269
  H   -4.643796056  -6.984776774  -3.655991595
  H   -5.173627539  -5.339839646  -4.086608862
  H   -4.499806933  -6.409796666  -5.320412659
  H   -3.414654712  -5.064950502  -1.916142380
  P    2.605647327  -5.046010842   1.356669635
  O    3.577787440  -5.741038308   0.225588297
  C    4.039570994  -7.082010328   0.556501484
  H    5.127174302  -6.950920383   0.751552494
  H    3.542681565  -7.503638845   1.457347205
  C    3.804413002  -7.998272891  -0.647458441
  H    4.642312648  -8.735349524  -0.731371740
  O    2.653727562  -8.849113218  -0.376733402
  C    1.589073569  -8.624698741  -1.316497336
  H    1.387133034  -9.623999388  -1.774473928
  C    3.534607153  -7.272713006  -1.989637745
  H    3.798402690  -6.187617963  -1.958792640
  C    2.053487875  -7.539893501  -2.296321570
  H    1.456291434  -6.603371737  -2.200086548
  H    1.898561375  -7.843514955  -3.349547173
  O    4.393222214  -7.760079761  -3.007500738
  O    1.577885449  -5.933877386   1.909950841
  O    3.617072149  -4.332773505   2.406513189
  N    0.369885318  -8.224052641  -0.529990274
  C   -0.841018684  -7.808152712  -1.267947702
  N   -1.956324074  -7.457320802  -0.532583260
  C   -1.950319963  -7.579568763   0.830062850
  C   -0.785941500  -7.997733471   1.552375079
  C    0.357442150  -8.303515237   0.856801881
  O   -0.744218089  -7.733033241  -2.481220185
  N   -3.101865963  -7.189790360   1.485377707
  H   -3.225479038  -7.418377522   2.462000271
  H   -3.953532675  -7.058412198   0.953851782
  H    1.011340633  -3.512819107  -5.847602915
  H    1.288549018  -8.613954341   1.360710926
  H   -0.784458210  -8.036807599   2.641084963
  H    4.286048561  -8.723894731  -3.162120314
  H   -3.128468969  -3.009473226  -4.242315592
  H   -2.237881806  -1.772878142   0.069365410
  H    4.169509898  -3.564489940   2.084916525
  H    0.548594821  -8.253478940  -7.838652784
  H   -3.150304815   6.319047340  -4.879476977

