%mem=64gb
%nproc=28       
%Chk=snap_60.chk
# opt b3lyp/6-31g(d,p)  scf=(xqc, tight)  pop=min    

tetra snap_60 

2     1 
  O    0.571713141  -5.317369584  -6.062892615
  C    1.196071789  -4.056179170  -6.373255424
  H    2.235420221  -4.227820777  -6.705263749
  H    1.172331213  -3.440196066  -5.444783034
  C    0.359887891  -3.419804898  -7.482878568
  H    0.696637035  -2.378668375  -7.699293532
  O    0.600861354  -4.131798227  -8.735504572
  C   -0.590200970  -4.756135931  -9.209629868
  H   -0.517503804  -4.724995917 -10.326457612
  C   -1.171981659  -3.494800097  -7.229423467
  H   -1.435667646  -4.184534531  -6.396268805
  C   -1.758939488  -4.016305369  -8.553044359
  H   -2.090013113  -3.157649777  -9.180507625
  H   -2.672624574  -4.621814388  -8.407797568
  O   -1.661838084  -2.168898546  -6.982570088
  N   -0.524615682  -6.208971856  -8.798299415
  C    0.228763436  -7.207529851  -9.464096641
  C    0.342232717  -8.310942233  -8.568356788
  N   -0.322823675  -7.973669950  -7.375520232
  C   -0.824298346  -6.723342356  -7.517572696
  N    0.705767179  -7.173435891 -10.743252660
  C    1.344893509  -8.323246179 -11.148772229
  N    1.529494844  -9.446005050 -10.313408885
  C    1.035179206  -9.521113111  -8.936512797
  N    1.819168667  -8.360126870 -12.434697757
  H    1.685200467  -7.556913322 -13.044644129
  H    2.285043724  -9.164560858 -12.826525165
  O    1.247895044 -10.533839899  -8.323588800
  H   -1.457192565  -6.197925196  -6.766817078
  H    2.030804000 -10.279727411 -10.652347418
  P   -1.859978878  -1.838682714  -5.354677410
  O   -2.648198722  -0.393911881  -5.529594159
  C   -1.844838868   0.793199701  -5.482159195
  H   -2.357740508   1.460326176  -6.207310480
  H   -0.802276662   0.627721259  -5.818103396
  C   -1.896190120   1.376398978  -4.058235022
  H   -0.968163612   1.172683204  -3.469102483
  O   -1.880640511   2.836420448  -4.185588757
  C   -3.113523839   3.413368974  -3.748184537
  H   -2.818336693   4.311857445  -3.145811366
  C   -3.188620962   1.010218103  -3.283466477
  H   -3.833840691   0.274322726  -3.827545889
  C   -3.909433687   2.343687369  -3.010789193
  H   -3.902915502   2.528682762  -1.904911003
  H   -4.980205937   2.286766692  -3.275310245
  O   -2.860169431   0.522679574  -1.975290465
  O   -0.557027800  -1.849854094  -4.658597578
  O   -3.081841583  -2.882147221  -5.109148908
  N   -3.794918319   3.900216533  -5.001241880
  C   -3.142341323   4.314123466  -6.157400026
  C   -4.149842086   4.775273155  -7.065462184
  N   -5.410174237   4.641650293  -6.467035903
  C   -5.198036663   4.131253880  -5.252899062
  N   -1.788752407   4.341567860  -6.493548221
  C   -1.477773164   4.874155883  -7.756981317
  N   -2.372793206   5.312500438  -8.627986015
  C   -3.755903374   5.290064554  -8.342458149
  H   -0.401191277   4.924575312  -8.034593148
  N   -4.603296184   5.749776808  -9.275710931
  H   -4.267343008   6.117917511 -10.166432829
  H   -5.611055017   5.760513590  -9.113086343
  H   -5.959485191   3.918077093  -4.506661896
  P   -2.330638820  -1.047586447  -1.858940456
  O   -0.814092195  -0.615186188  -1.441938840
  C    0.210854866  -1.647757746  -1.483834873
  H    0.198919475  -2.177009004  -2.469154288
  H    1.148567379  -1.065530881  -1.385898233
  C   -0.091043824  -2.532549875  -0.275207939
  H   -0.020248119  -1.983832220   0.694726900
  O   -1.530836943  -2.787021505  -0.459574706
  C   -1.803520800  -4.213500870  -0.536461357
  H   -2.731371126  -4.328063241   0.077856438
  C    0.597776338  -3.908456536  -0.186359034
  H    1.233197762  -4.129386628  -1.079792180
  C   -0.561213055  -4.907186335   0.014085962
  H   -0.351967118  -5.891592633  -0.460791222
  H   -0.697702415  -5.151590917   1.091720196
  O    1.450091799  -3.839142649   0.976961445
  O   -2.536749534  -1.800502803  -3.134084504
  O   -3.341019463  -1.468497980  -0.656957094
  N   -2.094389011  -4.585300828  -1.948442480
  C   -1.044835179  -4.764138957  -2.905016653
  N   -1.417717588  -5.307895061  -4.143429058
  C   -2.753629268  -5.630356844  -4.539958621
  C   -3.784269906  -5.304150313  -3.540232560
  C   -3.443341691  -4.808298342  -2.324370195
  O    0.127389261  -4.509257225  -2.676238969
  H   -0.617239455  -5.472765984  -4.823157123
  O   -2.894842261  -6.116631577  -5.648350910
  C   -5.194181086  -5.506122751  -3.968345818
  H   -5.335647699  -6.493245518  -4.442702078
  H   -5.917148007  -5.438587912  -3.145095383
  H   -5.482769429  -4.757925704  -4.729298987
  H   -4.199463458  -4.549919625  -1.568868808
  P    2.345676215  -5.209141706   1.236324545
  O    3.649316077  -4.861860995   0.300405474
  C    4.531074814  -5.983263557   0.018010266
  H    5.497927021  -5.669867248   0.472642704
  H    4.189858438  -6.938448992   0.475983817
  C    4.664710133  -6.150611441  -1.496080729
  H    5.707625651  -6.469701238  -1.744666246
  O    3.842571114  -7.294776247  -1.877643719
  C    3.137612514  -7.018896392  -3.100316427
  H    3.642305892  -7.613254814  -3.904997186
  C    4.223085248  -4.944160677  -2.367477052
  H    3.886987881  -4.070565464  -1.758438800
  C    3.148591812  -5.500544512  -3.315042483
  H    2.153185922  -5.042881921  -3.116714019
  H    3.366792249  -5.236445380  -4.366338402
  O    5.324991029  -4.400164892  -3.073229538
  O    1.692543949  -6.494893921   0.951356641
  O    2.825971715  -4.932383974   2.758062845
  N    1.749578003  -7.564468197  -2.933744934
  C    1.003567906  -7.860607140  -4.150244033
  N   -0.283819899  -8.335845686  -4.055260515
  C   -0.831747588  -8.558537321  -2.815972322
  C   -0.091801773  -8.317272805  -1.611511558
  C    1.194177146  -7.834877448  -1.692756831
  O    1.560404717  -7.628040586  -5.225317095
  N   -2.154416202  -8.942674111  -2.794345890
  H   -2.553246636  -9.345638932  -1.957736691
  H   -2.607512335  -9.201474378  -3.665605600
  H    1.247031286  -6.021219247  -5.817974056
  H    1.818359784  -7.645110007  -0.790839211
  H   -0.518609108  -8.552632778  -0.636304767
  H    5.745315763  -5.044184550  -3.683497063
  H   -3.407380229  -2.967709435  -4.139127622
  H   -2.988406867  -1.449086912   0.284346383
  H    3.171833493  -4.021502505   2.989310747
  H   -0.286468590  -8.521493481  -6.504691522
  H   -1.092079342   3.986321795  -5.819155642

