%mem=64gb
%nproc=28       
%Chk=snap_19.chk
# opt b3lyp/6-31g(d,p)  scf=(xqc, tight)  pop=min    

tetra snap_19 

2     1 
  O    2.706371392  -3.984248868  -7.774598678
  C    2.626148704  -2.613455887  -8.170947775
  H    3.515821931  -2.493419019  -8.826483351
  H    2.737974389  -1.970723828  -7.271715441
  C    1.334063818  -2.274023698  -8.917187471
  H    1.311409417  -1.201739294  -9.227261965
  O    1.312477575  -3.017813360 -10.188897576
  C    0.110843960  -3.757453318 -10.322306653
  H   -0.171769341  -3.720390383 -11.401410786
  C    0.029653486  -2.676571329  -8.182993215
  H    0.234121550  -3.475065147  -7.427725574
  C   -0.884207282  -3.216525022  -9.296361388
  H   -1.505505501  -2.397867750  -9.720284749
  H   -1.615266967  -3.960574149  -8.922748652
  O   -0.533388692  -1.492947074  -7.613329751
  N    0.464147494  -5.205676431 -10.000451744
  C   -0.434913002  -6.290071588  -9.946350957
  C    0.302056029  -7.415520382  -9.481838467
  N    1.620091228  -6.992873569  -9.234064577
  C    1.704469293  -5.668682088  -9.536153560
  N   -1.762432558  -6.298057434 -10.288705080
  C   -2.382603472  -7.513385842 -10.149230112
  N   -1.723031047  -8.679859258  -9.704273034
  C   -0.313133334  -8.712467718  -9.317182363
  N   -3.736344475  -7.567085306 -10.399598257
  H   -4.192779271  -6.744446583 -10.791099047
  H   -4.224092864  -8.444357240 -10.520393114
  O    0.141153429  -9.756979372  -8.932999158
  H    2.593498751  -5.009962679  -9.412898467
  H   -2.230195138  -9.573753639  -9.622083339
  P   -0.807808520  -1.624043734  -5.968290099
  O   -1.473655225  -0.113814918  -5.834211076
  C   -0.756917962   0.783323294  -4.951237399
  H   -0.489024626   1.656785454  -5.585700850
  H    0.178707768   0.336623287  -4.542164268
  C   -1.716517672   1.196688776  -3.829638452
  H   -1.245851148   1.106784543  -2.816549182
  O   -1.933871547   2.639859375  -3.947729344
  C   -3.308587990   2.942190351  -4.124105057
  H   -3.505428687   3.827228421  -3.477463695
  C   -3.116306620   0.523170691  -3.889609304
  H   -3.284151424  -0.092971318  -4.808228927
  C   -4.118775696   1.687078448  -3.794690941
  H   -4.530864962   1.728236506  -2.756459456
  H   -5.004602772   1.535999111  -4.438917261
  O   -3.342333006  -0.296123455  -2.737766379
  O    0.434683528  -1.904997051  -5.225376578
  O   -2.011820102  -2.714458875  -6.095301734
  N   -3.471304326   3.349355828  -5.565625146
  C   -3.736464135   4.620484677  -6.069239074
  C   -3.723803882   4.509444088  -7.499254423
  N   -3.411295794   3.191466644  -7.864756862
  C   -3.249340785   2.516831293  -6.727305594
  N   -3.998717391   5.845536925  -5.452176915
  C   -4.229501171   6.941944595  -6.309921010
  N   -4.243200263   6.874337700  -7.628666375
  C   -4.003014224   5.658317627  -8.305290030
  H   -4.414650968   7.928751806  -5.826795436
  N   -4.059927951   5.659227446  -9.646446695
  H   -4.265013932   6.510905432 -10.170664849
  H   -3.890160206   4.807144524 -10.180873234
  H   -2.967710543   1.462754981  -6.631972488
  P   -2.372700562  -1.645673208  -2.592843107
  O   -1.390134793  -0.907400365  -1.517299498
  C   -0.181560485  -1.592468856  -1.100958559
  H    0.443271526  -1.853982894  -1.988413700
  H    0.339462079  -0.828880307  -0.489102973
  C   -0.650138806  -2.800268878  -0.294668718
  H   -1.233102362  -2.522103565   0.617618544
  O   -1.634932260  -3.417113982  -1.192303492
  C   -1.235106084  -4.779908943  -1.549514604
  H   -2.180537881  -5.363869134  -1.426140721
  C    0.412866927  -3.867086621   0.029245115
  H    1.437660873  -3.588567440  -0.325689388
  C   -0.111271918  -5.169341898  -0.593896177
  H    0.724889661  -5.725943210  -1.089438664
  H   -0.475783769  -5.874567416   0.187759335
  O    0.376902702  -3.950307670   1.474931330
  O   -1.768593447  -2.065940260  -3.894366644
  O   -3.559116244  -2.611934083  -2.059032636
  N   -0.833714796  -4.766581575  -2.981018517
  C    0.467606901  -4.290096545  -3.361505351
  N    0.847197909  -4.524076129  -4.701123635
  C    0.053255893  -5.217608865  -5.649461299
  C   -1.266339649  -5.648150930  -5.197038890
  C   -1.647762090  -5.457461804  -3.906092455
  O    1.210611338  -3.725399114  -2.579679611
  H    1.737792585  -4.091693692  -5.000001896
  O    0.527032405  -5.339496001  -6.780363935
  C   -2.141315281  -6.301104718  -6.211258237
  H   -1.576374648  -6.538649347  -7.127453412
  H   -2.561350893  -7.248235619  -5.841931158
  H   -2.973139634  -5.644028890  -6.505586851
  H   -2.608234356  -5.828339624  -3.520946138
  P    1.642760661  -4.716515816   2.187633231
  O    1.614064543  -6.110052183   1.307364782
  C    2.442547807  -7.200411148   1.781798317
  H    2.904195391  -6.988430683   2.766832429
  H    1.721255788  -8.038360441   1.908087124
  C    3.495420178  -7.554496055   0.723539239
  H    4.428478445  -7.931366723   1.208789649
  O    3.037564003  -8.722572380  -0.021595051
  C    2.528225723  -8.350507563  -1.312446444
  H    2.952785567  -9.102990005  -2.019252889
  C    3.788103739  -6.472318419  -0.348137851
  H    3.591500121  -5.425152814  -0.012514847
  C    2.944784746  -6.897252082  -1.564286017
  H    2.070979596  -6.213113299  -1.685343267
  H    3.503718694  -6.784750705  -2.513855344
  O    5.174706654  -6.426258241  -0.635424921
  O    1.661620033  -4.777624003   3.641944422
  O    2.914113780  -3.970748638   1.441841306
  N    1.031585594  -8.552678251  -1.254248082
  C    0.156861455  -7.933653484  -2.262166835
  N   -1.213624204  -8.036260515  -2.083055903
  C   -1.717290608  -8.797324023  -1.066998672
  C   -0.869027650  -9.490073373  -0.138276810
  C    0.490771333  -9.346834905  -0.255783898
  O    0.696519066  -7.324599210  -3.168936173
  N   -3.090162091  -8.820292143  -0.933648180
  H   -3.531024888  -9.481574879  -0.311155321
  H   -3.671555747  -8.453837312  -1.674587583
  H    1.945486668  -4.231886167  -7.171020909
  H    1.196096186  -9.852942927   0.427895746
  H   -1.291786218 -10.118198552   0.642356223
  H    5.516718430  -7.280330062  -0.981449950
  H   -2.293837685  -3.154862854  -5.210938252
  H   -3.593890809  -2.833463802  -1.076937522
  H    3.555430315  -3.453153087   1.994644447
  H    2.342411846  -7.587962665  -8.837709471
  H   -3.983952577   5.949893783  -4.434963341

