%mem=64gb
%nproc=28       
%Chk=snap_25.chk
# opt b3lyp/6-31g(d,p)  scf=(xqc, tight)  pop=min    

tetra snap_25 

2     1 
  O    2.607152913  -4.150337451  -7.769664704
  C    2.604131650  -2.805310511  -8.280912028
  H    3.419684422  -2.829040765  -9.037824974
  H    2.882070804  -2.123015496  -7.449876708
  C    1.278108326  -2.382114397  -8.912254661
  H    1.298798429  -1.295615188  -9.176648933
  O    1.137930672  -3.064596550 -10.205778034
  C   -0.117777427  -3.716508377 -10.306674361
  H   -0.470381898  -3.571802858 -11.357293429
  C   -0.001717457  -2.734214079  -8.110719444
  H    0.194870591  -3.547796137  -7.369548485
  C   -1.009021525  -3.198069356  -9.175808556
  H   -1.637687756  -2.342292550  -9.506394184
  H   -1.726477819  -3.943081257  -8.783264291
  O   -0.484923834  -1.532293587  -7.506765063
  N    0.136961872  -5.197758642 -10.114351737
  C   -0.700788013  -6.231853175 -10.581184396
  C   -0.190658177  -7.445854880 -10.043552402
  N    0.938887212  -7.126067131  -9.261121606
  C    1.119817085  -5.782713315  -9.303610518
  N   -1.793727950  -6.112527463 -11.395654798
  C   -2.403966409  -7.304043909 -11.707350024
  N   -1.967413498  -8.552698074 -11.213382227
  C   -0.814380862  -8.715924608 -10.326092794
  N   -3.517294649  -7.249837321 -12.509424778
  H   -3.797828386  -6.357475025 -12.911446089
  H   -3.966968143  -8.076165448 -12.875514967
  O   -0.547129713  -9.828270727  -9.956223511
  H    1.937412269  -5.150128679  -8.751087687
  H   -2.463785939  -9.421040735 -11.462268807
  P   -0.574585173  -1.613347966  -5.839982457
  O   -1.213857581  -0.094131623  -5.713874889
  C   -0.448267422   0.842863549  -4.920257514
  H   -0.166501480   1.658988459  -5.623051152
  H    0.478177832   0.394636192  -4.497607898
  C   -1.377537189   1.367377099  -3.821465439
  H   -0.860373652   1.439686300  -2.831797749
  O   -1.678375708   2.767758862  -4.132180136
  C   -3.077484258   2.990950404  -4.206453578
  H   -3.257644643   3.945867426  -3.662208058
  C   -2.743851007   0.633422702  -3.714230488
  H   -2.948053356  -0.069355416  -4.559563779
  C   -3.789547595   1.759266897  -3.645239237
  H   -4.089839487   1.908481881  -2.579438578
  H   -4.727855675   1.496978140  -4.167736037
  O   -2.834866930  -0.067416496  -2.472525416
  O    0.735522673  -1.922122246  -5.240215450
  O   -1.812196560  -2.672055571  -5.782072670
  N   -3.399011479   3.193101936  -5.664562379
  C   -3.926871194   4.330001254  -6.269714926
  C   -4.005123726   4.051773732  -7.674791700
  N   -3.503906609   2.765766028  -7.926750061
  C   -3.137360544   2.269027337  -6.745760240
  N   -4.362871479   5.554923125  -5.759202675
  C   -4.869294720   6.478702393  -6.697381144
  N   -4.961980863   6.256765918  -7.995855030
  C   -4.531677316   5.039096213  -8.566553206
  H   -5.215918914   7.460681957  -6.301318916
  N   -4.644587910   4.890736898  -9.896170273
  H   -5.023977571   5.632788851 -10.485852594
  H   -4.340185072   4.033274517 -10.356205846
  H   -2.674782445   1.290677088  -6.566636795
  P   -1.924119297  -1.458456021  -2.346841317
  O   -0.935044428  -0.775510143  -1.246979552
  C    0.236477741  -1.499965972  -0.791632621
  H    0.889062698  -1.766158539  -1.655167612
  H    0.748252718  -0.751080047  -0.151531310
  C   -0.289437308  -2.701468833  -0.010828157
  H   -0.845319347  -2.414616897   0.914137321
  O   -1.318675464  -3.229771735  -0.918513384
  C   -1.044051667  -4.617121723  -1.280943510
  H   -2.034980535  -5.119463103  -1.141106047
  C    0.709246006  -3.845488976   0.266711249
  H    1.732246835  -3.642661487  -0.141842835
  C    0.055996839  -5.093984764  -0.342117112
  H    0.830807680  -5.708616674  -0.866302657
  H   -0.384565180  -5.778484352   0.430569513
  O    0.823904921  -3.883977032   1.702373218
  O   -1.335397071  -1.896657571  -3.651318609
  O   -3.168842728  -2.387907792  -1.869030346
  N   -0.664748413  -4.660332249  -2.719016961
  C    0.641307697  -4.236587120  -3.138096536
  N    0.979040153  -4.505005417  -4.483254663
  C    0.138379748  -5.186092953  -5.401137437
  C   -1.164371649  -5.608015259  -4.895122331
  C   -1.509853635  -5.373217383  -3.602252579
  O    1.423772070  -3.690155232  -2.381911587
  H    1.863838056  -4.082712230  -4.818529607
  O    0.565619506  -5.312835321  -6.551063004
  C   -2.069358398  -6.310287671  -5.847287946
  H   -2.947062502  -5.696524176  -6.097315583
  H   -1.556463539  -6.550316233  -6.792850271
  H   -2.424735529  -7.268257411  -5.432850063
  H   -2.462025832  -5.729788922  -3.180366552
  P    1.357277790  -5.286599418   2.386732771
  O    2.767726110  -5.527686555   1.599340152
  C    3.489950110  -6.736395077   1.985458131
  H    4.374366443  -6.352616718   2.543503158
  H    2.896214955  -7.414608530   2.632192413
  C    3.920816232  -7.459046252   0.707570005
  H    4.854329275  -8.044645689   0.902531679
  O    2.945627556  -8.491386753   0.385557129
  C    2.344313989  -8.270384611  -0.902204764
  H    2.581404549  -9.183324512  -1.502972959
  C    4.061001608  -6.546987726  -0.539443090
  H    4.063304225  -5.460055781  -0.280472213
  C    2.908080801  -6.959880313  -1.465440650
  H    2.136277376  -6.157081463  -1.513715979
  H    3.233608295  -7.069436480  -2.519880251
  O    5.332963728  -6.711125070  -1.139751436
  O    0.399269350  -6.405611615   2.362973576
  O    1.843490750  -4.735622916   3.836796695
  N    0.852566423  -8.229999127  -0.698369734
  C   -0.001274838  -7.888869392  -1.854899336
  N   -1.371631606  -7.900411895  -1.672059003
  C   -1.902745486  -8.296633301  -0.475826543
  C   -1.082761915  -8.619722425   0.652244343
  C    0.284100187  -8.572510209   0.521392820
  O    0.567997626  -7.553385318  -2.878656714
  N   -3.282185666  -8.279871505  -0.382521022
  H   -3.735527927  -8.742214822   0.393184706
  H   -3.831343022  -8.209779967  -1.229972837
  H    1.929295191  -4.249747524  -7.028706512
  H    0.965597997  -8.793622362   1.361302953
  H   -1.526040098  -8.863915152   1.616816117
  H    5.474551305  -7.617646507  -1.490050924
  H   -2.028827418  -3.035162792  -4.846316678
  H   -3.258653733  -2.605325986  -0.890376192
  H    1.183455148  -4.701359427   4.583516026
  H    1.485411692  -7.810795643  -8.747624120
  H   -4.277346885   5.786766921  -4.766836326

