%mem=64gb
%nproc=28       
%Chk=snap_49.chk
# opt b3lyp/6-31g(d,p)  scf=(xqc, tight)  pop=min    

tetra snap_49 

2     1 
  O    1.012077383  -4.348274071  -6.609065705
  C    1.272630095  -3.522546739  -7.745137578
  H    1.822281165  -4.194662854  -8.438602311
  H    1.933528042  -2.686827510  -7.452402533
  C   -0.020859565  -3.015844635  -8.404298424
  H    0.007692241  -1.925346819  -8.623914338
  O   -0.092544792  -3.621890685  -9.735762408
  C   -1.167254797  -4.543953217  -9.804869325
  H   -1.473332358  -4.581568904 -10.878747939
  C   -1.333807851  -3.422672845  -7.682859121
  H   -1.140687627  -4.132228062  -6.848599653
  C   -2.194783265  -4.093056623  -8.770537537
  H   -2.895650188  -3.341829524  -9.206516431
  H   -2.861458902  -4.879887537  -8.371185117
  O   -1.982902157  -2.227653973  -7.242336545
  N   -0.563211771  -5.900716795  -9.465325803
  C    0.549669211  -6.447349525 -10.152916509
  C    1.013857101  -7.549106782  -9.376229555
  N    0.191562253  -7.650556676  -8.240854335
  C   -0.734920220  -6.659384424  -8.296200583
  N    1.082444713  -6.039507244 -11.339108618
  C    2.180464694  -6.756598381 -11.759094748
  N    2.717861971  -7.846944217 -11.038411945
  C    2.164379380  -8.326316097  -9.774731008
  N    2.779623911  -6.356451153 -12.923526110
  H    2.383160284  -5.576704849 -13.447399736
  H    3.549221073  -6.853030184 -13.348607621
  O    2.704135531  -9.257751147  -9.237011028
  H   -1.542161437  -6.482127480  -7.524397208
  H    3.548371590  -8.351368515 -11.384436280
  P   -1.884454720  -1.982075164  -5.591429643
  O   -2.288750522  -0.378428723  -5.657140587
  C   -1.159136676   0.516250623  -5.526297239
  H   -1.219818810   1.178284377  -6.417727358
  H   -0.178285837  -0.009185988  -5.539358520
  C   -1.337296366   1.314690002  -4.228318677
  H   -0.455625012   1.208887117  -3.543696071
  O   -1.301894980   2.732672153  -4.593014395
  C   -2.493343027   3.396971864  -4.201533320
  H   -2.163784874   4.371225568  -3.773731211
  C   -2.685204998   1.073358544  -3.492236729
  H   -3.391743565   0.412602419  -4.055547397
  C   -3.264454632   2.478799923  -3.254296615
  H   -3.095520191   2.760295915  -2.184642108
  H   -4.362638860   2.511261934  -3.378147617
  O   -2.462625173   0.534924240  -2.183720464
  O   -0.520785858  -2.316203214  -5.099929560
  O   -3.211735097  -2.831802760  -5.217129686
  N   -3.273521320   3.658334135  -5.463378360
  C   -3.522990210   4.883991107  -6.073732938
  C   -4.265808678   4.606838839  -7.268909723
  N   -4.441297027   3.221653344  -7.402296184
  C   -3.848233793   2.667196523  -6.345695446
  N   -3.202127766   6.196445044  -5.720516319
  C   -3.647526538   7.207171169  -6.598536192
  N   -4.343282392   6.992222358  -7.700114590
  C   -4.696120430   5.685793170  -8.104683298
  H   -3.387693455   8.257033641  -6.330520147
  N   -5.404558733   5.541547566  -9.235204376
  H   -5.689449072   6.347442238  -9.793151961
  H   -5.687317072   4.617713516  -9.564197454
  H   -3.771366425   1.597841493  -6.132766823
  P   -1.939839122  -1.041589753  -2.126694846
  O   -0.364059950  -0.619236503  -2.002071174
  C    0.626505726  -1.674938740  -2.089328806
  H    0.527660580  -2.225120779  -3.060840206
  H    1.584885456  -1.118954669  -2.067025831
  C    0.396862750  -2.537791677  -0.852553625
  H    0.465522467  -1.957076593   0.101240287
  O   -1.026902569  -2.893004416  -0.975034771
  C   -1.199104230  -4.338208310  -1.108678761
  H   -2.059964284  -4.553167955  -0.426966901
  C    1.190429163  -3.853127305  -0.747358023
  H    1.918443824  -3.991759733  -1.585571136
  C    0.126563190  -4.958235489  -0.679759784
  H    0.437988892  -5.809640571  -1.332732531
  H    0.019349058  -5.406480124   0.342270370
  O    1.950789839  -3.695868082   0.468840322
  O   -2.321099802  -1.805634768  -3.356798162
  O   -2.732443658  -1.376858442  -0.757879364
  N   -1.585877174  -4.654455877  -2.510002189
  C   -0.585355035  -4.786717977  -3.523632165
  N   -1.008019856  -5.348741937  -4.752636217
  C   -2.325162352  -5.822509048  -5.027384732
  C   -3.280237616  -5.683126400  -3.924899760
  C   -2.898819838  -5.140725831  -2.740049461
  O    0.574599913  -4.444102003  -3.365962044
  H   -0.269567924  -5.448453366  -5.477972869
  O   -2.527912689  -6.257260121  -6.155941065
  C   -4.650212978  -6.220508812  -4.148649957
  H   -4.800295942  -7.156940151  -3.582083981
  H   -5.438923371  -5.516894523  -3.849319813
  H   -4.827342236  -6.468078857  -5.210291421
  H   -3.596995053  -5.052780804  -1.895413509
  P    2.578331969  -5.056400686   1.152153965
  O    3.496335006  -5.634843578  -0.070505924
  C    4.102989694  -6.937191974   0.183192957
  H    5.178559816  -6.711103250   0.357871447
  H    3.673802375  -7.451328486   1.069124824
  C    3.909905785  -7.796451908  -1.069321940
  H    4.801491012  -8.454072053  -1.222791926
  O    2.840763076  -8.753815120  -0.823072043
  C    1.718967402  -8.539251545  -1.697968283
  H    1.570078923  -9.513459946  -2.224830579
  C    3.534693912  -7.013244540  -2.353915934
  H    3.738787568  -5.917967673  -2.274527248
  C    2.058420239  -7.352622907  -2.607182211
  H    1.409388569  -6.468342328  -2.408814019
  H    1.864019781  -7.579885558  -3.672410080
  O    4.368535157  -7.391866509  -3.436572087
  O    1.604409770  -5.995931931   1.734734993
  O    3.674987274  -4.392998291   2.153139255
  N    0.514730049  -8.291526084  -0.830592116
  C   -0.758216425  -7.906861743  -1.474675533
  N   -1.850691656  -7.681185918  -0.662244562
  C   -1.767038608  -7.908401028   0.684833444
  C   -0.544592574  -8.314118975   1.315280534
  C    0.577799628  -8.481123439   0.544173436
  O   -0.732657398  -7.746485152  -2.683976575
  N   -2.904721223  -7.651142370   1.420889487
  H   -2.963133693  -7.946621463   2.384641539
  H   -3.787313700  -7.516761152   0.944015263
  H    0.849638871  -3.783272112  -5.791367626
  H    1.550751641  -8.768851802   0.976101601
  H   -0.485246503  -8.447141016   2.394719704
  H    4.300586160  -8.347721243  -3.648925061
  H   -3.346262873  -3.017862908  -4.214583919
  H   -2.237372381  -1.817236718   0.005129948
  H    3.422381584  -4.250619379   3.108440100
  H    0.287912708  -8.373352021  -7.533002995
  H   -2.638558712   6.408640914  -4.893943649

