%mem=64gb
%nproc=28       
%Chk=snap_81.chk
# opt b3lyp/6-31g(d,p)  scf=(xqc, tight)  pop=min    

tetra snap_81 

2     1 
  O    2.905717178  -4.825156668  -7.524261615
  C    2.653587090  -3.583311335  -8.194809065
  H    3.173510622  -3.732018005  -9.171043025
  H    3.144698444  -2.767268124  -7.631524223
  C    1.174628809  -3.275665732  -8.431527464
  H    1.058979937  -2.241463546  -8.845046830
  O    0.717285747  -4.148860287  -9.523102435
  C   -0.515210297  -4.773146312  -9.197222976
  H   -1.122939265  -4.799991299 -10.132199287
  C    0.174409791  -3.490876392  -7.266394082
  H    0.560423011  -4.176479554  -6.472942513
  C   -1.080097077  -4.040376648  -7.977109926
  H   -1.754205412  -3.211487096  -8.280987934
  H   -1.712592738  -4.674522871  -7.317642738
  O   -0.048793101  -2.181056542  -6.723892580
  N   -0.205532088  -6.204082402  -8.804196290
  C   -1.172371789  -7.225927412  -8.659603200
  C   -0.612758651  -8.193295152  -7.773826388
  N    0.684359602  -7.767440960  -7.432591605
  C    0.908875071  -6.575158009  -8.028392748
  N   -2.395946858  -7.326006201  -9.259207352
  C   -3.125218515  -8.426861633  -8.885934472
  N   -2.670005379  -9.396499036  -7.955659624
  C   -1.379183030  -9.311054112  -7.297336138
  N   -4.374062859  -8.574807130  -9.438614354
  H   -4.680375684  -7.913756582 -10.149941478
  H   -4.928810096  -9.408960100  -9.321621575
  O   -1.103240865 -10.135930224  -6.452771339
  H    1.873757131  -5.928131185  -7.962073349
  H   -3.283067228 -10.166188476  -7.656812702
  P   -0.787372555  -2.110876915  -5.233724835
  O   -1.720996755  -0.780370701  -5.572471103
  C   -1.168858533   0.505473198  -5.270472887
  H   -1.557143621   1.136838648  -6.098331589
  H   -0.062174752   0.522466149  -5.289939722
  C   -1.722016910   0.970201132  -3.910484862
  H   -1.034406510   0.750433602  -3.057067577
  O   -1.742803491   2.435683052  -3.938586294
  C   -3.069234342   2.948122034  -3.784361228
  H   -2.990648549   3.731210363  -2.985498267
  C   -3.176791129   0.500459617  -3.655150629
  H   -3.554231745  -0.182597997  -4.457829041
  C   -4.011576341   1.784264828  -3.499041501
  H   -4.402434704   1.825780492  -2.449161441
  H   -4.916007334   1.751381645  -4.131910561
  O   -3.310031921  -0.129074997  -2.373041384
  O    0.192765010  -2.003046659  -4.135510792
  O   -1.814323996  -3.354420844  -5.442757148
  N   -3.395915618   3.641048484  -5.080268952
  C   -2.485416840   4.099425935  -6.023548307
  C   -3.242592411   4.747103997  -7.054109560
  N   -4.606066424   4.692282326  -6.734982475
  C   -4.693246219   4.046617336  -5.571869567
  N   -1.093735388   4.026319743  -6.079850900
  C   -0.488167707   4.636252955  -7.193098362
  N   -1.146086317   5.236384092  -8.172010487
  C   -2.555220026   5.336229296  -8.163287709
  H    0.622907563   4.599556527  -7.248224328
  N   -3.155230170   5.969731326  -9.182573225
  H   -2.617894220   6.381574290  -9.946531071
  H   -4.170647053   6.075738979  -9.212691099
  H   -5.605024565   3.846825487  -5.014901050
  P   -2.667105257  -1.641712231  -2.177095530
  O   -1.476883975  -1.148275332  -1.178895353
  C   -0.342026974  -2.055319296  -1.079723993
  H    0.040956280  -2.307221280  -2.098566433
  H    0.418452452  -1.439758496  -0.552597477
  C   -0.845856052  -3.228581055  -0.247714707
  H   -1.054366794  -2.932722827   0.809131581
  O   -2.164026059  -3.512717790  -0.839494574
  C   -2.369410900  -4.956794962  -0.993075342
  H   -3.377067844  -5.118204301  -0.535017517
  C   -0.079401773  -4.565373667  -0.303593515
  H    0.544889134  -4.673850318  -1.238616874
  C   -1.211330440  -5.612773016  -0.245286206
  H   -0.896664977  -6.597263926  -0.662622738
  H   -1.497824387  -5.846266709   0.804662604
  O    0.784567796  -4.545368526   0.837417338
  O   -2.284940205  -2.266943132  -3.480177728
  O   -3.969678866  -2.294163370  -1.451184319
  N   -2.451207036  -5.269142484  -2.446889228
  C   -1.322404144  -5.750011410  -3.189178005
  N   -1.566756204  -6.186342109  -4.506016479
  C   -2.820383571  -6.065239484  -5.190932483
  C   -3.883904994  -5.417995622  -4.401183104
  C   -3.689754432  -5.064493582  -3.105917842
  O   -0.205095072  -5.815585627  -2.705804635
  H   -0.736659330  -6.553898623  -5.012886348
  O   -2.873152905  -6.479416728  -6.330730547
  C   -5.168569563  -5.153515232  -5.105994161
  H   -6.000716794  -5.733829998  -4.676940043
  H   -5.444579568  -4.088812224  -5.070205097
  H   -5.111930712  -5.428621870  -6.174068744
  H   -4.480818458  -4.581093393  -2.509682713
  P    1.714123856  -5.906459773   1.072927023
  O    2.860939788  -5.813127686  -0.083857700
  C    4.045058026  -4.995244711   0.121284316
  H    4.018422515  -4.425902799   1.073609026
  H    4.875627774  -5.736017424   0.160780861
  C    4.199949554  -4.068418710  -1.087938465
  H    5.132538254  -3.458268726  -0.981608959
  O    4.463870565  -4.859857578  -2.281273826
  C    3.387999920  -4.763616046  -3.222306488
  H    3.874132318  -4.471902174  -4.184763541
  C    2.960747619  -3.187396461  -1.394386956
  H    2.260123968  -3.129771669  -0.530540069
  C    2.355860507  -3.776058406  -2.673837601
  H    1.378787018  -4.286526794  -2.473810250
  H    2.076164522  -2.989651355  -3.414429009
  O    3.325062722  -1.823779137  -1.542622988
  O    0.974153554  -7.165770367   1.083239811
  O    2.518901309  -5.378623045   2.390353101
  N    2.807922511  -6.143621577  -3.412328488
  C    1.903193797  -6.349128725  -4.521907273
  N    1.359693399  -7.597852173  -4.729543586
  C    1.555590309  -8.601077408  -3.802080311
  C    2.400946555  -8.389010931  -2.662229106
  C    3.011727211  -7.171464317  -2.496004654
  O    1.657744022  -5.393989051  -5.266865699
  N    0.919083905  -9.779441463  -4.060220770
  H    0.997779659 -10.573802602  -3.441773838
  H    0.308890608  -9.883467359  -4.873502374
  H    2.654696257  -4.778748360  -6.548513569
  H    3.694408610  -6.960101273  -1.652907279
  H    2.551838958  -9.179911965  -1.927726271
  H    3.894448446  -1.672484938  -2.328900394
  H   -2.448328690  -3.529039396  -4.647669558
  H   -3.949633768  -2.369820637  -0.447944354
  H    2.163018131  -5.598162138   3.294671082
  H    1.234648292  -8.180119192  -6.668126317
  H   -0.579574304   3.575299587  -5.305913060

