%mem=64gb
%nproc=28       
%Chk=snap_155.chk
# opt b3lyp/6-31g(d,p)  scf=(xqc, tight)  pop=min    

tetra snap_155 

2     1 
  O    2.000197672  -2.754615777  -4.693407150
  C    1.616968660  -3.791456190  -5.589260609
  H    1.041368660  -4.563010026  -5.038866874
  H    2.595254919  -4.238757840  -5.886522501
  C    0.880425362  -3.223383370  -6.807224743
  H    1.178935059  -2.162959449  -6.997189115
  O    1.362488480  -3.938363027  -7.997673928
  C    0.291801180  -4.530895549  -8.718152514
  H    0.531766155  -4.421080090  -9.802742857
  C   -0.660934398  -3.400464688  -6.802073394
  H   -1.027746422  -4.091373713  -6.008676887
  C   -1.007869470  -3.906934418  -8.211293160
  H   -1.321631855  -3.050048639  -8.850926547
  H   -1.881749528  -4.588546494  -8.225665113
  O   -1.281413613  -2.104558247  -6.688687542
  N    0.348633684  -6.007705532  -8.376172470
  C   -0.632845102  -6.992933237  -8.617328480
  C   -0.216868893  -8.155764894  -7.906181999
  N    1.011119991  -7.878950113  -7.293191881
  C    1.333560842  -6.588473322  -7.553115703
  N   -1.768342455  -6.899524091  -9.372547199
  C   -2.549279377  -8.033933817  -9.370298689
  N   -2.225519171  -9.217644510  -8.664370310
  C   -1.060430168  -9.323106203  -7.802557587
  N   -3.711022415  -7.993812769 -10.099957230
  H   -3.908275386  -7.178417423 -10.676015147
  H   -4.308188843  -8.798658357 -10.225715917
  O   -0.919107812 -10.314981539  -7.125243747
  H    2.231184090  -6.057160141  -7.189394759
  H   -2.904167615  -9.990948145  -8.600095312
  P   -1.701855903  -1.632416344  -5.163189898
  O   -2.689865348  -0.387528660  -5.587370622
  C   -2.035860300   0.726139056  -6.230240822
  H   -2.908180035   1.349617931  -6.525863027
  H   -1.506607675   0.393064965  -7.146683480
  C   -1.106610691   1.482165411  -5.267428958
  H   -0.053510511   1.093071007  -5.265286399
  O   -0.979233398   2.843695315  -5.798753183
  C   -1.344861384   3.822679945  -4.819502335
  H   -0.531715945   4.594064833  -4.857040792
  C   -1.649205957   1.617884527  -3.821615443
  H   -2.691174763   1.222841354  -3.714908857
  C   -1.540484118   3.116009137  -3.485073191
  H   -0.651966395   3.267930999  -2.818354508
  H   -2.395690014   3.465135847  -2.880666182
  O   -0.712165897   0.971673151  -2.943134189
  O   -0.448848472  -1.244410218  -4.391976279
  O   -2.530067681  -2.937873957  -4.683561882
  N   -2.610224960   4.457659891  -5.333558928
  C   -2.944689362   4.621780289  -6.673215319
  C   -4.151037891   5.393671462  -6.713292894
  N   -4.553619106   5.693973750  -5.404782497
  C   -3.646636478   5.144588194  -4.596503489
  N   -2.323367216   4.180047266  -7.840964659
  C   -2.936720514   4.561484857  -9.048261506
  N   -4.044458446   5.280142834  -9.134105399
  C   -4.714591721   5.748009055  -7.981538127
  H   -2.448215316   4.228661854  -9.991466847
  N   -5.818899481   6.492300121  -8.144271516
  H   -6.172393083   6.729639394  -9.072365340
  H   -6.332548693   6.854997331  -7.338958583
  H   -3.645322721   5.191376214  -3.510217749
  P   -1.218147272  -0.486852832  -2.355430253
  O    0.141426558  -1.173128014  -1.803333806
  C    0.353926664  -2.591919813  -1.983400635
  H    0.194807404  -2.901826028  -3.037520861
  H    1.445278586  -2.645880882  -1.746281633
  C   -0.482215354  -3.390291025  -0.984898250
  H   -0.672239816  -2.815051117  -0.044553570
  O   -1.804718493  -3.612535971  -1.570815989
  C   -2.204861026  -4.980656083  -1.445714019
  H   -3.228957858  -4.939511445  -0.997953693
  C    0.082862433  -4.799664458  -0.659643493
  H    0.826148586  -5.157339491  -1.429181482
  C   -1.157428078  -5.705972083  -0.602808139
  H   -0.948341181  -6.738478539  -0.951187152
  H   -1.524529825  -5.855275504   0.442290857
  O    0.782781510  -4.619508462   0.580593511
  O   -2.348019220  -1.152900839  -3.110786650
  O   -1.820177155   0.017534319  -0.917202065
  N   -2.321922739  -5.542857010  -2.838161103
  C   -1.173159061  -5.831378352  -3.624923928
  N   -1.386304747  -6.567829373  -4.814884314
  C   -2.675061313  -6.980416269  -5.299723016
  C   -3.810749142  -6.547218746  -4.473966555
  C   -3.614117378  -5.879340283  -3.311348732
  O   -0.041943276  -5.474332500  -3.327389275
  H   -0.536119205  -6.929932872  -5.276372335
  O   -2.694609541  -7.626048466  -6.327900902
  C   -5.163669477  -6.903445333  -4.981197953
  H   -5.973899943  -6.629531764  -4.290955100
  H   -5.373888386  -6.405088916  -5.942025415
  H   -5.248437637  -7.989583328  -5.159638034
  H   -4.451589415  -5.564080639  -2.671616067
  P    1.231508556  -5.990038359   1.402694493
  O    2.457382974  -6.573205963   0.495753927
  C    3.822272237  -6.155047861   0.771340445
  H    3.900795963  -5.491026561   1.659817745
  H    4.340202447  -7.118739258   0.983342948
  C    4.411657424  -5.484658931  -0.470171276
  H    5.471010709  -5.186501432  -0.256118961
  O    4.553491288  -6.473588953  -1.531113395
  C    3.802094152  -6.106939073  -2.691668239
  H    4.536594780  -6.097870823  -3.536636097
  C    3.597623527  -4.296879919  -1.048302927
  H    2.793662113  -3.945541473  -0.357537985
  C    3.091414204  -4.781388345  -2.413078687
  H    1.981638066  -4.915542430  -2.421980121
  H    3.265358762  -4.028260294  -3.217558365
  O    4.402541710  -3.136083269  -1.146703299
  O    0.145932306  -6.940466568   1.644137028
  O    1.999288575  -5.272117585   2.650004904
  N    2.810140889  -7.211314499  -2.972444001
  C    2.287867481  -7.295137088  -4.323701628
  N    1.407396208  -8.318608331  -4.635879513
  C    1.001957643  -9.209590767  -3.670320908
  C    1.467279191  -9.087108364  -2.318433030
  C    2.378355748  -8.106317905  -2.005594988
  O    2.634329628  -6.459956921  -5.152556443
  N    0.109525159 -10.165139707  -4.073102902
  H   -0.160823839 -10.923603085  -3.463715280
  H   -0.153715106 -10.253387289  -5.055494450
  H    1.220236106  -2.186407911  -4.424444485
  H    2.802787394  -7.990636070  -0.988423653
  H    1.120784438  -9.775436456  -1.548353896
  H    5.139201735  -3.239147379  -1.791076479
  H   -2.696981568  -2.981291027  -3.655056022
  H   -1.181966823   0.203391611  -0.179801833
  H    1.516994287  -5.187334945   3.521386318
  H    1.438377269  -8.480844458  -6.555304097
  H   -1.462562591   3.615511605  -7.774102531

