%mem=64gb
%nproc=28       
%Chk=snap_178.chk
# opt b3lyp/6-31g(d,p)  scf=(xqc, tight)  pop=min    

tetra snap_178 

2     1 
  O    0.636078239  -1.691029699  -6.051750209
  C    0.640002344  -2.819746447  -6.921827750
  H    0.610032996  -3.755557234  -6.323937667
  H    1.625244670  -2.746665218  -7.431076747
  C   -0.508398035  -2.711235148  -7.935394340
  H   -0.609696695  -1.677244467  -8.335221489
  O   -0.101056390  -3.510358313  -9.100213323
  C   -1.004872206  -4.581186672  -9.325191247
  H   -1.037178985  -4.747764258 -10.428831433
  C   -1.873821167  -3.292777349  -7.478815713
  H   -1.799820953  -3.834019210  -6.505570188
  C   -2.312819339  -4.218810330  -8.622186106
  H   -3.001318284  -3.673010964  -9.311688322
  H   -2.913777450  -5.085743316  -8.282737923
  O   -2.852556933  -2.216279714  -7.426844488
  N   -0.355880330  -5.798097966  -8.684356029
  C   -0.965430466  -7.025833136  -8.356936239
  C    0.000476934  -7.769865572  -7.616887706
  N    1.167640719  -7.002233850  -7.512542629
  C    0.947730888  -5.820836129  -8.136647493
  N   -2.229865933  -7.453903001  -8.648681502
  C   -2.545177108  -8.699494101  -8.146098201
  N   -1.657230275  -9.476023750  -7.368644679
  C   -0.307802571  -9.060068493  -7.055210886
  N   -3.803909663  -9.178753568  -8.389689110
  H   -4.426625873  -8.664985022  -9.010301700
  H   -4.092605087 -10.108600681  -8.111001315
  O    0.362097600  -9.776240165  -6.344549662
  H    1.664673242  -4.997501852  -8.241494824
  H   -1.990385033 -10.335165577  -6.857655070
  P   -3.147484680  -1.687966622  -5.894547599
  O   -3.458576703  -0.087050224  -6.001981408
  C   -2.383610453   0.828217108  -6.281477986
  H   -2.897533611   1.807010641  -6.143807290
  H   -2.089586189   0.723151665  -7.346726519
  C   -1.176993353   0.685364526  -5.343761432
  H   -0.486094436  -0.151498688  -5.667668189
  O   -0.367177283   1.887211135  -5.539811935
  C    0.130908748   2.373896337  -4.278426391
  H    1.237152037   2.177748942  -4.283792360
  C   -1.495430100   0.596778775  -3.831018947
  H   -2.586806100   0.691281599  -3.608056495
  C   -0.652346477   1.691348526  -3.157412716
  H    0.028898347   1.226581424  -2.399215311
  H   -1.291812171   2.383361239  -2.573976139
  O   -0.943437668  -0.647946343  -3.346942231
  O   -1.854072716  -2.024075802  -5.152924812
  O   -4.562084038  -2.360694569  -5.560096727
  N   -0.077165578   3.855100228  -4.311925261
  C   -0.358781681   4.649121462  -5.416400241
  C   -0.326059352   6.010318616  -4.966842993
  N   -0.021222115   6.044020304  -3.598823318
  C    0.130693733   4.778126585  -3.215251032
  N   -0.632506779   4.329238747  -6.745290048
  C   -0.853393866   5.417221131  -7.611166408
  N   -0.830174130   6.686417525  -7.241486748
  C   -0.558813505   7.065112979  -5.907311144
  H   -1.070124337   5.180636341  -8.677091580
  N   -0.531708285   8.373263206  -5.613183027
  H   -0.691589666   9.084518802  -6.328475119
  H   -0.345900797   8.697853177  -4.662938446
  H    0.388680477   4.425817479  -2.218999721
  P   -2.057948490  -1.825440206  -2.993244252
  O   -1.247362176  -3.245093234  -3.179650004
  C   -2.081014928  -4.430230773  -3.101350828
  H   -3.067298152  -4.302709033  -3.586508763
  H   -1.492582319  -5.178382646  -3.679339059
  C   -2.210859565  -4.809694202  -1.619138759
  H   -2.687824295  -4.010817780  -0.995978663
  O   -3.138772639  -5.917363573  -1.533717275
  C   -2.540719024  -7.047189633  -0.868259406
  H   -3.301831873  -7.360690696  -0.110315530
  C   -0.870847203  -5.275687745  -0.997211094
  H   -0.053958268  -5.405632602  -1.750786677
  C   -1.209406849  -6.586300947  -0.267736201
  H   -0.394459065  -7.336138259  -0.376282164
  H   -1.315689977  -6.431038205   0.827594326
  O   -0.532442085  -4.195566837  -0.094249671
  O   -3.435884441  -1.598530046  -3.559201508
  O   -2.011837758  -1.729036883  -1.365272467
  N   -2.420466780  -8.131017171  -1.898330947
  C   -1.393096101  -8.101479881  -2.886365278
  N   -1.455020394  -9.101338216  -3.887616498
  C   -2.541308549 -10.022537716  -4.060695434
  C   -3.553461579  -9.982160715  -2.997314713
  C   -3.476890132  -9.070409650  -1.995845839
  O   -0.494271520  -7.277422870  -2.893627830
  H   -0.621939916  -9.174302162  -4.498339482
  O   -2.548636901 -10.706242391  -5.069255009
  C   -4.654083821 -10.981483300  -3.079695122
  H   -5.626015241 -10.506798012  -3.285622290
  H   -4.482040708 -11.718222032  -3.884823681
  H   -4.760845267 -11.563030469  -2.150120744
  H   -4.237060879  -9.022743595  -1.201634800
  P    0.974619859  -4.286367751   0.589368680
  O    1.402236887  -2.733523126   0.266946578
  C    2.806635786  -2.489668961  -0.016295984
  H    2.998472561  -1.553659384   0.554946483
  H    3.470872097  -3.299198378   0.356751871
  C    3.018801123  -2.274289018  -1.517220073
  H    3.810765596  -1.504258281  -1.699860969
  O    3.569951249  -3.517095440  -2.050616973
  C    2.989585288  -3.803996863  -3.339685206
  H    3.778823675  -3.567899751  -4.097570245
  C    1.743156706  -1.955637243  -2.324595706
  H    0.829872845  -1.951865572  -1.693046854
  C    1.709675195  -2.975082085  -3.464332914
  H    0.792699032  -3.599451488  -3.442804469
  H    1.684675575  -2.468311903  -4.460227635
  O    1.902112315  -0.618136903  -2.838793379
  O    1.837497184  -5.391305529   0.166895878
  O    0.597618277  -4.212406893   2.166435090
  N    2.715233769  -5.278640434  -3.405425617
  C    2.308032052  -5.813997590  -4.694693511
  N    2.166242532  -7.179437090  -4.839294286
  C    2.334141248  -8.006258609  -3.754532414
  C    2.720301218  -7.484058352  -2.473289281
  C    2.911149926  -6.133526234  -2.323982448
  O    2.106179081  -5.036093913  -5.626816510
  N    2.075333517  -9.336344766  -3.963227068
  H    2.310378412 -10.030874195  -3.270254118
  H    1.856664410  -9.675112851  -4.900098443
  H   -0.122000717  -1.767653994  -5.388226330
  H    3.219817579  -5.671362295  -1.362370219
  H    2.849057670  -8.146902170  -1.618316466
  H    1.175361571  -0.471459957  -3.488514484
  H   -4.924727672  -2.177619167  -4.602236509
  H   -1.321194816  -2.271525818  -0.870121250
  H    0.183149486  -3.377860026   2.522816646
  H    1.929419094  -7.229941580  -6.832408652
  H   -0.611058842   3.342052042  -7.040637985

