%mem=64gb
%nproc=28       
%Chk=snap_182.chk
# opt b3lyp/6-31g(d,p)  scf=(xqc, tight)  pop=min    

tetra snap_182 

2     1 
  O    0.387933478  -1.717777825  -6.052222906
  C    0.527888145  -2.815354885  -6.950209294
  H    0.500905515  -3.770608308  -6.385435416
  H    1.546331806  -2.677864417  -7.372162007
  C   -0.544610242  -2.731860022  -8.044844564
  H   -0.643032659  -1.699932905  -8.450652983
  O   -0.052682172  -3.520467614  -9.182794234
  C   -0.935172455  -4.594984033  -9.476778442
  H   -0.893813600  -4.752979060 -10.581395009
  C   -1.925207764  -3.336105223  -7.673003313
  H   -1.902566827  -3.894950516  -6.708299142
  C   -2.287340716  -4.244806088  -8.857208998
  H   -2.926867622  -3.685349899  -9.581858398
  H   -2.910346428  -5.116897049  -8.575309529
  O   -2.899646559  -2.259251176  -7.658212946
  N   -0.311247220  -5.807294634  -8.804022259
  C   -0.925004767  -7.023944913  -8.445179631
  C    0.031890743  -7.741066060  -7.666577119
  N    1.200659785  -6.973103795  -7.578433070
  C    0.986900249  -5.812144774  -8.239329146
  N   -2.184734159  -7.467820270  -8.737943542
  C   -2.506948163  -8.690043652  -8.186411839
  N   -1.634873211  -9.425709299  -7.351590633
  C   -0.289436590  -8.998836524  -7.044489710
  N   -3.755445080  -9.193542683  -8.433004885
  H   -4.372008794  -8.719674512  -9.089509364
  H   -4.040173813 -10.110201891  -8.108326002
  O    0.366160888  -9.677966279  -6.283621397
  H    1.699347449  -4.984609430  -8.352986261
  H   -1.985342941 -10.248237241  -6.793378171
  P   -3.346119068  -1.790925854  -6.144227609
  O   -3.656690198  -0.184895060  -6.249686078
  C   -2.543734630   0.714754535  -6.412195922
  H   -3.059691236   1.701802781  -6.410488744
  H   -2.079497557   0.556887398  -7.407464314
  C   -1.511019093   0.609036461  -5.281698360
  H   -0.792170033  -0.250966392  -5.438099539
  O   -0.668571263   1.800625161  -5.391882392
  C   -0.291216693   2.236425236  -4.065035298
  H    0.737891019   1.827656708  -3.869153538
  C   -2.086169849   0.599779624  -3.841990797
  H   -3.198746159   0.669164174  -3.809097231
  C   -1.377967694   1.746465858  -3.103068208
  H   -0.945121170   1.373600842  -2.142832677
  H   -2.094584827   2.539729918  -2.810786296
  O   -1.605793233  -0.592491439  -3.182660280
  O   -2.133847471  -2.101558730  -5.262310927
  O   -4.778093497  -2.499973503  -6.017281928
  N   -0.206429882   3.722379390  -4.142184888
  C   -0.202359294   4.520452127  -5.278980905
  C    0.029286030   5.865413242  -4.839224534
  N    0.170102133   5.883763757  -3.444265560
  C    0.036833332   4.624373952  -3.034519221
  N   -0.371963284   4.215443090  -6.628028562
  C   -0.294601128   5.300374694  -7.521654489
  N   -0.084006211   6.555707771  -7.162219837
  C    0.099861423   6.917618949  -5.808809340
  H   -0.426512283   5.074745070  -8.603749865
  N    0.332617788   8.206723959  -5.520439793
  H    0.379143521   8.919195687  -6.250854970
  H    0.476065885   8.513433516  -4.556750770
  H    0.099365771   4.261161330  -2.011180751
  P   -2.619046166  -1.892679184  -3.126186554
  O   -1.501711781  -3.071517800  -3.188510398
  C   -1.969419812  -4.422825971  -2.937187597
  H   -2.996314339  -4.601912385  -3.311089005
  H   -1.262559286  -5.029090739  -3.548213065
  C   -1.865382487  -4.722713409  -1.436848394
  H   -2.182351142  -3.856022521  -0.795275819
  O   -2.850395651  -5.760998766  -1.179059140
  C   -2.227695668  -6.964325031  -0.706567471
  H   -2.906402590  -7.326677817   0.105275795
  C   -0.494404739  -5.268725551  -0.960566863
  H    0.249914119  -5.400809118  -1.782035100
  C   -0.819253722  -6.592198558  -0.240962033
  H   -0.056039476  -7.370474490  -0.452907964
  H   -0.807172199  -6.467478251   0.864406756
  O   -0.039914458  -4.243329713  -0.058994073
  O   -3.914474353  -1.765589902  -3.901118789
  O   -3.003861731  -1.949562051  -1.535327909
  N   -2.267152819  -7.963845597  -1.832632357
  C   -1.279136920  -7.978605986  -2.858337096
  N   -1.431013119  -8.961777124  -3.866662418
  C   -2.570304233  -9.820112269  -4.012160439
  C   -3.553301444  -9.715959354  -2.926497845
  C   -3.388070920  -8.825955307  -1.915518402
  O   -0.340084186  -7.201208044  -2.901446208
  H   -0.629307283  -9.067249226  -4.514146656
  O   -2.636152903 -10.506377595  -5.017406702
  C   -4.726172451 -10.628692383  -3.010686339
  H   -4.446600985 -11.609278206  -3.436773143
  H   -5.185453360 -10.834729896  -2.033345279
  H   -5.511177604 -10.214387653  -3.663524436
  H   -4.126241628  -8.731188693  -1.104993221
  P    1.457005977  -4.417070161   0.618364224
  O    1.885249651  -2.835362411   0.579038478
  C    3.111427304  -2.476420003  -0.093420699
  H    3.400309289  -1.561053496   0.472851857
  H    3.901616574  -3.249946096   0.032492990
  C    2.905712762  -2.155105106  -1.576925687
  H    3.463848203  -1.223969400  -1.855289406
  O    3.580095523  -3.226574045  -2.310122572
  C    2.853244136  -3.556998602  -3.506218265
  H    3.471002121  -3.193424408  -4.365633286
  C    1.462628328  -2.076605936  -2.116941966
  H    0.680301969  -2.374709884  -1.382131615
  C    1.466057740  -2.917966474  -3.399327487
  H    0.644118895  -3.655435999  -3.416638128
  H    1.279299693  -2.274337716  -4.294778763
  O    1.237524652  -0.688298121  -2.436320766
  O    2.334510942  -5.437183644   0.035438397
  O    1.056823962  -4.585422294   2.185245997
  N    2.779897758  -5.056046906  -3.593923266
  C    2.358683995  -5.619960833  -4.862487555
  N    2.265886230  -6.991408610  -4.992249391
  C    2.529874620  -7.805327540  -3.914735440
  C    3.006375745  -7.257547947  -2.675986611
  C    3.131322593  -5.898198268  -2.541094667
  O    2.091321001  -4.860695700  -5.793855953
  N    2.291887075  -9.140598650  -4.095138850
  H    2.561300193  -9.823731719  -3.403935916
  H    1.976760157  -9.491600038  -4.998736169
  H   -0.398159075  -1.869513578  -5.436281957
  H    3.508865307  -5.419535949  -1.612731786
  H    3.255714422  -7.905313032  -1.835108456
  H    0.372914550  -0.628564647  -2.908275411
  H   -5.253048056  -2.386679158  -5.102940855
  H   -3.917644299  -1.677032722  -1.253770665
  H    0.696403037  -3.785095814   2.664922728
  H    1.960978029  -7.179829711  -6.877177741
  H   -0.506243088   3.231956934  -6.909448347

