%mem=64gb
%nproc=28       
%Chk=snap_161.chk
# opt b3lyp/6-31g(d,p)  scf=(xqc, tight)  pop=min    

tetra snap_161 

2     1 
  O    1.813237723  -2.499490582  -4.903070976
  C    1.352956776  -3.600221813  -5.674492619
  H    0.844858894  -4.336481481  -5.022393543
  H    2.300875575  -4.058989615  -6.046002561
  C    0.488406252  -3.113963496  -6.845636248
  H    0.672510105  -2.031288378  -7.048553265
  O    0.968915292  -3.776773379  -8.065899001
  C   -0.071055569  -4.481140960  -8.724942482
  H    0.077297252  -4.333088935  -9.821524326
  C   -1.023279862  -3.444950638  -6.747130290
  H   -1.270373596  -4.138977774  -5.915117574
  C   -1.400357688  -4.026779281  -8.118022359
  H   -1.882466588  -3.241043652  -8.743450507
  H   -2.167981554  -4.825547002  -8.051609323
  O   -1.779363179  -2.222368638  -6.625528925
  N    0.172545453  -5.946122094  -8.419845759
  C   -0.706035238  -7.019019537  -8.686797421
  C   -0.237939146  -8.122151142  -7.913000200
  N    0.929054541  -7.726013876  -7.247018864
  C    1.157024443  -6.420707003  -7.530438727
  N   -1.787630691  -7.042626679  -9.520219461
  C   -2.481861418  -8.231265740  -9.516551184
  N   -2.123521853  -9.352456417  -8.727295031
  C   -1.004768753  -9.338293286  -7.801185273
  N   -3.586061312  -8.316439229 -10.325173926
  H   -3.819676208  -7.536887515 -10.936674041
  H   -4.117098017  -9.166811886 -10.442317844
  O   -0.846160699 -10.282078694  -7.061343041
  H    1.994641449  -5.808252011  -7.146059015
  H   -2.733681689 -10.181016457  -8.687508421
  P   -2.083298225  -1.712073635  -5.086509907
  O   -2.935565472  -0.360808589  -5.469175619
  C   -2.174172534   0.662683055  -6.146387697
  H   -2.963873672   1.417233334  -6.355278727
  H   -1.782964638   0.279220562  -7.111308377
  C   -1.060271450   1.244249662  -5.261511884
  H   -0.092016559   0.678467499  -5.321323870
  O   -0.732365111   2.557842902  -5.824394492
  C   -0.909974544   3.597135812  -4.856329120
  H   -0.011491442   4.257883145  -4.967757438
  C   -1.469975761   1.479215908  -3.784059461
  H   -2.550530309   1.258504634  -3.595681595
  C   -1.102617067   2.946098746  -3.493514347
  H   -0.146992056   2.963007012  -2.906744149
  H   -1.835635957   3.435961744  -2.830218072
  O   -0.587924509   0.699769654  -2.957295944
  O   -0.757962460  -1.470112242  -4.376532343
  O   -3.033650978  -2.897549374  -4.535077878
  N   -2.117236615   4.372137346  -5.316280982
  C   -2.495033452   4.556801602  -6.642254944
  C   -3.614729110   5.450202788  -6.639047930
  N   -3.920999717   5.806363837  -5.318543489
  C   -3.038105346   5.174514632  -4.544419567
  N   -1.976915825   4.042113738  -7.830512021
  C   -2.598002080   4.478898155  -9.015162132
  N   -3.629222487   5.306317461  -9.061111477
  C   -4.199388439   5.844890597  -7.885767487
  H   -2.186409448   4.092073140  -9.974413319
  N   -5.238325306   6.684085536  -8.010961631
  H   -5.612820689   6.939161834  -8.926035507
  H   -5.678290832   7.104445733  -7.190720466
  H   -2.975688034   5.238534574  -3.461406548
  P   -1.272526720  -0.656636846  -2.305114426
  O   -0.008623156  -1.577243988  -1.860587458
  C   -0.093677219  -3.005881195  -2.056686566
  H   -0.498535046  -3.274095233  -3.051278578
  H    0.990592243  -3.284610295  -2.037721894
  C   -0.876738283  -3.665603586  -0.920404037
  H   -0.982127079  -3.009568468  -0.021368511
  O   -2.245941685  -3.877687673  -1.384539541
  C   -2.573078979  -5.267514890  -1.423561435
  H   -3.615407509  -5.323541246  -1.023414954
  C   -0.320844572  -5.062702127  -0.531689752
  H    0.511217656  -5.400109161  -1.196260254
  C   -1.523189921  -6.018926851  -0.604290518
  H   -1.241363824  -7.006456343  -1.020322118
  H   -1.904352324  -6.235195520   0.418795055
  O    0.092479291  -4.925697708   0.843308759
  O   -2.537253189  -1.155863880  -2.969418966
  O   -1.658653219  -0.053114852  -0.834574522
  N   -2.602642712  -5.688760432  -2.871708143
  C   -1.409045417  -5.896447496  -3.614875792
  N   -1.554852815  -6.464054813  -4.903781513
  C   -2.816409495  -6.721486103  -5.542742673
  C   -3.993075536  -6.325022822  -4.760356769
  C   -3.862687510  -5.854029931  -3.494975855
  O   -0.295845866  -5.603190218  -3.204125646
  H   -0.681772054  -6.797449801  -5.342533842
  O   -2.776614631  -7.208779931  -6.654878698
  C   -5.321739686  -6.460336267  -5.418519412
  H   -5.245981783  -6.935738255  -6.411120012
  H   -6.017581074  -7.076952967  -4.828131899
  H   -5.797742169  -5.478069342  -5.572345724
  H   -4.737855326  -5.574463257  -2.890053452
  P    1.454192325  -5.767076392   1.236114593
  O    2.582533100  -4.679839206   0.785567220
  C    3.958988541  -5.156996074   0.753920187
  H    4.465524835  -4.542584083   1.533218762
  H    4.060965418  -6.233992526   0.997673363
  C    4.524528760  -4.860842047  -0.635705408
  H    5.630639753  -4.706936883  -0.572833029
  O    4.388551990  -6.061740252  -1.453023220
  C    3.751489706  -5.759180226  -2.705752841
  H    4.536625762  -5.886043950  -3.493999001
  C    3.823328386  -3.695678764  -1.387232138
  H    3.112234675  -3.133376840  -0.732354071
  C    3.167587202  -4.348443706  -2.611678961
  H    2.060007276  -4.354668745  -2.522648520
  H    3.337962095  -3.753072656  -3.539942152
  O    4.760489446  -2.692272028  -1.729415134
  O    1.558336541  -7.116251372   0.649116510
  O    1.460369312  -5.628622016   2.853502231
  N    2.712027166  -6.825364843  -2.933955354
  C    2.180013696  -6.949033945  -4.278303897
  N    1.358132591  -8.024183031  -4.577307748
  C    1.003175425  -8.922409936  -3.598728886
  C    1.475293949  -8.766610509  -2.256399550
  C    2.344301491  -7.743649342  -1.957100123
  O    2.476400056  -6.106952696  -5.120729979
  N    0.147366481  -9.922246048  -3.986237169
  H   -0.046573801 -10.705043422  -3.377869059
  H   -0.089236355 -10.047935890  -4.970648219
  H    1.056315661  -2.013295789  -4.470803438
  H    2.780948831  -7.617065387  -0.943172639
  H    1.171973437  -9.455967582  -1.467328085
  H    5.398571403  -2.984056411  -2.416424062
  H   -3.189140929  -2.862874538  -3.501098977
  H   -0.932812910   0.054318515  -0.163801963
  H    0.990093349  -6.320358702   3.397880211
  H    1.376490192  -8.268295702  -6.472611918
  H   -1.180889816   3.387293912  -7.794757764

