%mem=64gb
%nproc=28       
%Chk=snap_35.chk
# opt b3lyp/6-31g(d,p)  scf=(xqc, tight)  pop=min    

tetra snap_35 

2     1 
  O    2.019397641  -3.767976546  -6.300478951
  C    2.349454940  -3.506257882  -7.657846331
  H    2.575761952  -4.508648749  -8.075309357
  H    3.273157703  -2.894633655  -7.698637935
  C    1.196592569  -2.831984222  -8.417987260
  H    1.397865455  -1.754560017  -8.625262150
  O    1.163951059  -3.450563337  -9.747658922
  C   -0.141106567  -3.891959559 -10.085476870
  H   -0.312843308  -3.571849152 -11.145941176
  C   -0.220999870  -3.020417413  -7.820532850
  H   -0.254773085  -3.817911898  -7.043050308
  C   -1.110920035  -3.373263789  -9.027163658
  H   -1.638091860  -2.454847579  -9.375326277
  H   -1.921851647  -4.075558758  -8.757082920
  O   -0.650472890  -1.745923276  -7.328175157
  N   -0.099270206  -5.406147240 -10.089465243
  C   -0.205292204  -6.224588172 -11.237057712
  C   -0.091828693  -7.572842338 -10.790625671
  N    0.087422098  -7.551384266  -9.396292132
  C    0.091152341  -6.255258219  -8.987633712
  N   -0.400096143  -5.827157707 -12.527944561
  C   -0.463877500  -6.855508362 -13.443672050
  N   -0.347371696  -8.217549837 -13.088499026
  C   -0.154524803  -8.682223889 -11.716166506
  N   -0.663533283  -6.519013111 -14.755617623
  H   -0.726097094  -5.537402483 -15.020463724
  H   -0.683956582  -7.199477419 -15.502333171
  O   -0.073384583  -9.866185129 -11.526832131
  H    0.196844801  -5.903584271  -7.931060563
  H   -0.394581480  -8.956926530 -13.807249103
  P   -0.832317256  -1.658502459  -5.671248847
  O   -1.500246529  -0.144054310  -5.693987923
  C   -0.602409722   0.904392965  -5.252877904
  H   -0.534739990   1.603547869  -6.116217969
  H    0.420439801   0.531405292  -5.014367610
  C   -1.236949933   1.588255967  -4.038381058
  H   -0.500648705   1.736111137  -3.208460496
  O   -1.566370455   2.960725589  -4.440565592
  C   -2.930407137   3.258409981  -4.190240225
  H   -2.934722601   4.279829271  -3.746200236
  C   -2.557814675   0.949887108  -3.526318832
  H   -2.982632932   0.184331382  -4.222689418
  C   -3.512154151   2.140971954  -3.324495608
  H   -3.513630249   2.420587863  -2.241978005
  H   -4.562140417   1.883547414  -3.553125046
  O   -2.350882061   0.391736597  -2.227816014
  O    0.479928100  -1.810281622  -4.997107318
  O   -2.032145544  -2.749283695  -5.583585135
  N   -3.604982953   3.312233945  -5.538882341
  C   -4.286488495   4.381990889  -6.111278316
  C   -4.649485635   3.978721190  -7.439330365
  N   -4.181064039   2.678392203  -7.679175198
  C   -3.563015504   2.292701767  -6.562897773
  N   -4.655572073   5.637094011  -5.621909739
  C   -5.386829287   6.462248078  -6.501770643
  N   -5.731639713   6.129668151  -7.732693879
  C   -5.374944696   4.878904472  -8.281970115
  H   -5.689328785   7.463345112  -6.117727738
  N   -5.729448865   4.620179186  -9.550940159
  H   -6.247693273   5.299570798 -10.109023206
  H   -5.492201431   3.730589699  -9.989749480
  H   -3.065343180   1.331170466  -6.394925638
  P   -1.676870614  -1.132982736  -2.186660428
  O   -0.265271001  -0.588665536  -1.582830063
  C    0.838551257  -1.527472314  -1.461560731
  H    1.062411684  -2.005703098  -2.446577696
  H    1.682225873  -0.872262730  -1.164857228
  C    0.402187196  -2.502482627  -0.370995965
  H    0.183654836  -1.995819418   0.601167550
  O   -0.910884110  -2.938345930  -0.868980300
  C   -0.928684431  -4.379168470  -1.114186195
  H   -1.910113266  -4.695967594  -0.676274371
  C    1.255651407  -3.769199011  -0.151262488
  H    2.166174692  -3.804334319  -0.802591885
  C    0.295217504  -4.939278929  -0.397018206
  H    0.816858419  -5.736177256  -0.988183881
  H   -0.045565804  -5.453845905   0.540901301
  O    1.746761599  -3.640454018   1.197719310
  O   -1.648734858  -1.769752187  -3.541725930
  O   -2.796411161  -1.731449401  -1.178274753
  N   -0.934471986  -4.611466451  -2.583373015
  C    0.295497004  -4.599688295  -3.324741493
  N    0.223814469  -5.065823705  -4.655598893
  C   -0.941338219  -5.597332453  -5.272658527
  C   -2.140512764  -5.625029526  -4.433010914
  C   -2.101376844  -5.177494365  -3.151190815
  O    1.340378887  -4.198856329  -2.845612477
  H    1.109820819  -5.004287058  -5.212911333
  O   -0.842803891  -5.938042085  -6.448379293
  C   -3.369855196  -6.211312947  -5.033822125
  H   -4.283726379  -5.684839257  -4.730419423
  H   -3.335208186  -6.189359304  -6.134847830
  H   -3.479829005  -7.269389379  -4.737120936
  H   -2.978771494  -5.230301744  -2.490516213
  P    1.959365343  -4.986472767   2.125869137
  O    3.169330794  -5.706619522   1.274337571
  C    3.532465337  -7.046275493   1.707500825
  H    4.475790009  -6.911264786   2.279981616
  H    2.760250072  -7.510480235   2.356304289
  C    3.767525173  -7.908626112   0.462513660
  H    4.672492783  -8.550124831   0.604529221
  O    2.697422927  -8.889830328   0.354572511
  C    1.856350375  -8.642860710  -0.784421451
  H    1.790958947  -9.626107826  -1.311704851
  C    3.808887476  -7.141100917  -0.883375511
  H    3.958908060  -6.041369942  -0.756342320
  C    2.496680585  -7.510703511  -1.595016342
  H    1.831317060  -6.621073440  -1.690857440
  H    2.671957572  -7.812942993  -2.647057469
  O    4.952695941  -7.514058585  -1.632894406
  O    0.799611700  -5.836812886   2.412224619
  O    2.690328212  -4.289124341   3.395784893
  N    0.485454410  -8.310338911  -0.252897496
  C   -0.546252507  -7.789444338  -1.166578801
  N   -1.787702832  -7.485287474  -0.639164526
  C   -2.066575973  -7.768070479   0.670624642
  C   -1.085185170  -8.327379516   1.555740313
  C    0.173929881  -8.576229960   1.075718342
  O   -0.213829870  -7.591762531  -2.324074567
  N   -3.324780125  -7.434973269   1.118512813
  H   -3.636865871  -7.720733963   2.034361813
  H   -4.041325610  -7.164982370   0.460145765
  H    1.837630337  -2.918712114  -5.779494824
  H    0.972129293  -8.995429601   1.711244794
  H   -1.317973136  -8.509375818   2.602990105
  H    4.955623551  -8.468360160  -1.866047182
  H   -2.295442808  -3.047163731  -4.635483726
  H   -2.522632009  -2.000955750  -0.246690366
  H    3.382110652  -3.590648328   3.218581493
  H    0.173795085  -8.384708939  -8.818993589
  H   -4.386454751   5.950875391  -4.686702434

