%mem=64gb
%nproc=28       
%Chk=snap_24.chk
# opt b3lyp/6-31g(d,p)  scf=(xqc, tight)  pop=min    

tetra snap_24 

2     1 
  O    2.771994226  -4.065882788  -7.845024147
  C    2.736686906  -2.732044469  -8.380617436
  H    3.510988637  -2.768261172  -9.178795801
  H    3.060270921  -2.031766167  -7.582242329
  C    1.372584304  -2.326262182  -8.940481818
  H    1.364078304  -1.250347356  -9.242493528
  O    1.144258674  -3.055124096 -10.195151116
  C   -0.103254767  -3.731140198 -10.176362884
  H   -0.544545475  -3.610728479 -11.196473472
  C    0.167312306  -2.669417513  -8.029126826
  H    0.464989045  -3.439511691  -7.274198187
  C   -0.907987888  -3.208457963  -8.986983615
  H   -1.599956951  -2.390054433  -9.285364495
  H   -1.559080451  -3.965276311  -8.507291514
  O   -0.280026529  -1.455464894  -7.427007594
  N    0.196674290  -5.205996887  -9.991109749
  C   -0.687479970  -6.256218540 -10.312305043
  C   -0.063072746  -7.462748227  -9.891315712
  N    1.173026417  -7.122401557  -9.305631945
  C    1.310286008  -5.771956841  -9.354539687
  N   -1.914397615  -6.155668292 -10.911281725
  C   -2.548881037  -7.357288096 -11.114450039
  N   -1.994633285  -8.601648033 -10.744023535
  C   -0.691795776  -8.747546931 -10.091052191
  N   -3.808511834  -7.318498139 -11.664034183
  H   -4.178444134  -6.425374975 -11.985643965
  H   -4.286896715  -8.148856526 -11.984405444
  O   -0.327778817  -9.858755172  -9.813353800
  H    2.167762579  -5.135274578  -8.919011184
  H   -2.506419205  -9.479814328 -10.919932055
  P   -0.662130689  -1.612984203  -5.805967709
  O   -1.320625470  -0.098517778  -5.713720258
  C   -0.584582375   0.834223747  -4.886820667
  H   -0.291679195   1.659592764  -5.574377376
  H    0.334591376   0.390442587  -4.441465187
  C   -1.542324677   1.343700740  -3.805884593
  H   -1.057072645   1.383536967  -2.796991697
  O   -1.809924274   2.755214847  -4.097879477
  C   -3.202113460   3.003878509  -4.207809062
  H   -3.377626224   3.958679547  -3.661985718
  C   -2.924393763   0.632974393  -3.758579381
  H   -3.117684528  -0.035239510  -4.634555096
  C   -3.947346709   1.779196745  -3.675073983
  H   -4.251711822   1.918002515  -2.608606263
  H   -4.888814081   1.547414070  -4.205816818
  O   -3.065103412  -0.111237947  -2.546250723
  O    0.526759685  -1.945154658  -5.001297644
  O   -1.897792336  -2.659530799  -6.002880090
  N   -3.486254557   3.221443159  -5.671771544
  C   -3.952226156   4.380722815  -6.284816367
  C   -4.030634249   4.103294842  -7.689852037
  N   -3.587696383   2.794911778  -7.934570783
  C   -3.258157299   2.283912339  -6.748694657
  N   -4.328459718   5.627642278  -5.781416437
  C   -4.771815066   6.575871989  -6.726785735
  N   -4.866807332   6.354525127  -8.025226154
  C   -4.508345990   5.109880079  -8.587420768
  H   -5.065018632   7.576832884  -6.336065487
  N   -4.643615412   4.953502024  -9.913743004
  H   -4.992032581   5.707639502 -10.506432347
  H   -4.394589833   4.075684489 -10.368614369
  H   -2.843488328   1.286272424  -6.562746084
  P   -2.165284375  -1.509852616  -2.448414569
  O   -1.046175136  -0.803619067  -1.490113768
  C    0.139064575  -1.546898674  -1.110834022
  H    0.713097208  -1.851539474  -2.017907424
  H    0.719343335  -0.799909455  -0.531348619
  C   -0.356884808  -2.717723364  -0.266975381
  H   -0.895446713  -2.396108019   0.657254656
  O   -1.399347470  -3.294998677  -1.128810671
  C   -1.074813549  -4.669557249  -1.500847543
  H   -2.055406990  -5.198051100  -1.381763456
  C    0.653782742  -3.840819421   0.044820892
  H    1.676543966  -3.634368655  -0.362124663
  C    0.019487142  -5.111816695  -0.537877830
  H    0.809670793  -5.728953247  -1.036099697
  H   -0.424046027  -5.786492447   0.240940765
  O    0.774578769  -3.832568224   1.478601806
  O   -1.718050494  -1.995265746  -3.790527870
  O   -3.357023366  -2.376778167  -1.773237397
  N   -0.660151517  -4.705539062  -2.929397372
  C    0.677577092  -4.347806158  -3.309349097
  N    1.050157177  -4.646843256  -4.638995792
  C    0.196798055  -5.258312455  -5.594091157
  C   -1.146301826  -5.597441477  -5.134202376
  C   -1.518052557  -5.348864838  -3.850621625
  O    1.467622937  -3.846433019  -2.530146269
  H    1.989815904  -4.328268222  -4.925867536
  O    0.655253367  -5.385835944  -6.730601817
  C   -2.063854606  -6.239307156  -6.117503167
  H   -2.942054927  -5.611531441  -6.324982055
  H   -1.561919813  -6.429813291  -7.079724046
  H   -2.419803713  -7.217549374  -5.753005497
  H   -2.506263032  -5.641522862  -3.466217703
  P    1.214924331  -5.226237332   2.249657897
  O    2.726237569  -5.421003179   1.632969400
  C    3.375430444  -6.679635241   1.969021629
  H    4.234030958  -6.368361174   2.605751495
  H    2.716456238  -7.371595168   2.536295034
  C    3.864493999  -7.356470660   0.686073379
  H    4.815186758  -7.909669214   0.895233175
  O    2.935763600  -8.422352550   0.335050565
  C    2.379570986  -8.235717837  -0.977599140
  H    2.666192363  -9.150102414  -1.553251284
  C    4.002587266  -6.433050101  -0.551646552
  H    3.921439989  -5.348679013  -0.295598490
  C    2.929702149  -6.918416039  -1.537145213
  H    2.135372693  -6.147437698  -1.666306269
  H    3.331407287  -7.045578098  -2.562902377
  O    5.310698545  -6.511935601  -1.090191035
  O    0.338317017  -6.396851370   2.136365637
  O    1.426197752  -4.597372630   3.730452392
  N    0.880771166  -8.235239438  -0.827695058
  C    0.051050676  -7.917836799  -2.008209244
  N   -1.323234190  -7.939689602  -1.857373048
  C   -1.879205178  -8.330592593  -0.670410031
  C   -1.082607030  -8.643116578   0.477021173
  C    0.286012360  -8.579225444   0.379482836
  O    0.640241134  -7.587352222  -3.022368352
  N   -3.260211370  -8.317897048  -0.605282791
  H   -3.726806232  -8.761247785   0.174086788
  H   -3.794314887  -8.266034294  -1.463499955
  H    2.044763387  -4.203374941  -7.164401706
  H    0.949252554  -8.787129286   1.237463273
  H   -1.544936858  -8.891002727   1.431830527
  H    5.524642083  -7.405238627  -1.438192238
  H   -2.243642216  -3.078754849  -5.131303722
  H   -3.254853877  -2.689160144  -0.820446414
  H    1.839140619  -3.688744999   3.802555019
  H    1.807200934  -7.796809052  -8.887138604
  H   -4.249855448   5.852290170  -4.787302856

