%mem=64gb
%nproc=28       
%Chk=snap_120.chk
# opt b3lyp/6-31g(d,p)  scf=(xqc, tight)  pop=min    

tetra snap_120 

2     1 
  O    2.693453627  -3.851658535  -6.654565585
  C    2.440527880  -3.551135565  -8.020602122
  H    2.836454736  -4.346443306  -8.683478437
  H    3.036108439  -2.625763076  -8.175405161
  C    0.957820090  -3.291551307  -8.310170938
  H    0.806492175  -2.303733208  -8.807176524
  O    0.566409520  -4.282666743  -9.326419113
  C   -0.703843807  -4.849579085  -9.033749505
  H   -1.286436614  -4.855558993  -9.987493172
  C   -0.049502946  -3.463276471  -7.146797601
  H    0.358302221  -4.089014521  -6.319582397
  C   -1.279811613  -4.088762770  -7.839531467
  H   -1.986513389  -3.295532989  -8.168134913
  H   -1.890754140  -4.718795846  -7.154375121
  O   -0.328788708  -2.136478625  -6.678134674
  N   -0.451533586  -6.291616281  -8.646608340
  C   -1.292071727  -7.396532922  -8.895867855
  C   -0.833912439  -8.457535719  -8.055553330
  N    0.253558791  -7.982619151  -7.308857493
  C    0.478556605  -6.696784567  -7.674707927
  N   -2.317314223  -7.485595999  -9.795005404
  C   -2.929975007  -8.714830766  -9.844679860
  N   -2.564207817  -9.805489275  -9.020282918
  C   -1.491015129  -9.741702279  -8.035380849
  N   -3.960015825  -8.870236033 -10.736889463
  H   -4.192767340  -8.105980937 -11.368268367
  H   -4.418330691  -9.754660873 -10.899489463
  O   -1.276231171 -10.717722868  -7.361451836
  H    1.283270228  -6.049790487  -7.296552683
  H   -3.072142938 -10.700616369  -9.074621560
  P   -1.011825488  -2.020845990  -5.165205526
  O   -1.855747116  -0.631921304  -5.497101675
  C   -1.256962847   0.590530796  -5.038630018
  H   -1.525694877   1.308882989  -5.840967861
  H   -0.153289087   0.531339694  -4.958478215
  C   -1.911045711   0.972402269  -3.698137883
  H   -1.304803696   0.664192755  -2.809398646
  O   -1.897315296   2.430640709  -3.585377623
  C   -3.213886385   2.974281636  -3.710252892
  H   -3.272417141   3.784682094  -2.937972086
  C   -3.397120354   0.532034384  -3.624354406
  H   -3.698614260  -0.132556892  -4.474898647
  C   -4.215384942   1.835074182  -3.563346059
  H   -4.729527408   1.880382084  -2.567427718
  H   -5.034911033   1.836773589  -4.303232274
  O   -3.700383614  -0.126496232  -2.384569367
  O   -0.017619514  -1.926507778  -4.075099167
  O   -2.065852053  -3.244208757  -5.357036094
  N   -3.237857373   3.624615629  -5.070080461
  C   -2.117894002   4.132643285  -5.721009244
  C   -2.574997658   4.728510987  -6.940176765
  N   -3.966249474   4.584406816  -7.033125508
  C   -4.352661883   3.937699492  -5.931649496
  N   -0.768550320   4.135113916  -5.367466929
  C    0.103383717   4.777499700  -6.263011695
  N   -0.271944960   5.345403178  -7.398584205
  C   -1.624459422   5.362117285  -7.804633490
  H    1.182156816   4.801071443  -5.988703914
  N   -1.931489843   5.966358316  -8.962767672
  H   -1.216014222   6.412353670  -9.537836941
  H   -2.896147244   6.013716121  -9.293056149
  H   -5.374444115   3.674827415  -5.670521896
  P   -2.941761115  -1.572044306  -2.098617609
  O   -1.789436079  -0.937605227  -1.131938575
  C   -0.624032086  -1.782178531  -0.912231287
  H   -0.205130769  -2.121047065  -1.889649115
  H    0.100209525  -1.094918037  -0.425192212
  C   -1.103541900  -2.901772330   0.003855681
  H   -1.411544015  -2.535335507   1.013126222
  O   -2.346418961  -3.342704162  -0.650039385
  C   -2.386474224  -4.800818015  -0.780275815
  H   -3.393689919  -5.055977760  -0.363717162
  C   -0.218662031  -4.156260836   0.112268822
  H    0.548014114  -4.194530461  -0.717146851
  C   -1.211004113  -5.332466225   0.032168241
  H   -0.732925821  -6.245345328  -0.386817844
  H   -1.532034835  -5.638581814   1.053110302
  O    0.397056528  -4.086275672   1.404110926
  O   -2.465502609  -2.212475267  -3.363992434
  O   -4.205698797  -2.277417549  -1.364028082
  N   -2.363751011  -5.146516844  -2.228893122
  C   -1.149861974  -5.441190405  -2.934582434
  N   -1.293198118  -5.939034458  -4.247213951
  C   -2.538810758  -6.092925043  -4.941442072
  C   -3.718467346  -5.643181616  -4.182790439
  C   -3.607667133  -5.200289394  -2.906132068
  O   -0.047140327  -5.303130119  -2.435893956
  H   -0.415975771  -6.205881908  -4.748180907
  O   -2.491158890  -6.546068410  -6.067667233
  C   -5.025192550  -5.687490396  -4.893648256
  H   -5.253636919  -4.722225283  -5.373421907
  H   -5.024666854  -6.447861779  -5.694227213
  H   -5.863839886  -5.935078754  -4.226450685
  H   -4.482892561  -4.850964133  -2.335697486
  P    1.797835090  -4.972145051   1.513828460
  O    2.784487406  -4.102206222   0.531883296
  C    3.499632084  -4.878672742  -0.465622202
  H    4.487625660  -5.139800402  -0.030426894
  H    2.960684621  -5.807412789  -0.748447189
  C    3.662911322  -3.917503366  -1.653774887
  H    4.341322134  -3.061256244  -1.426791944
  O    4.367945316  -4.697359220  -2.676044862
  C    3.561491197  -4.888810413  -3.835076400
  H    4.254466685  -4.741764794  -4.699975509
  C    2.341551849  -3.441648042  -2.293876817
  H    1.440612377  -3.828636549  -1.746976111
  C    2.376474918  -3.936433912  -3.744707894
  H    1.400719028  -4.392140279  -4.015327490
  H    2.494454413  -3.091680051  -4.464034893
  O    2.311134782  -2.017685253  -2.204655748
  O    1.669521849  -6.402759401   1.192778461
  O    2.270332169  -4.511037619   2.994165282
  N    3.136755700  -6.358409252  -3.838394008
  C    2.061616257  -6.814488065  -4.675090069
  N    1.710186370  -8.144899648  -4.709099571
  C    2.363241115  -9.041066913  -3.890618789
  C    3.433774674  -8.605750816  -3.033477572
  C    3.799021289  -7.284579124  -3.034286929
  O    1.462328417  -5.994274466  -5.395270145
  N    1.958479902 -10.341452242  -3.963294196
  H    2.377493385 -11.062191028  -3.392455095
  H    1.185635463 -10.617749324  -4.557911346
  H    2.404602127  -4.765094026  -6.402625346
  H    4.629643209  -6.898940578  -2.414394304
  H    3.951174370  -9.319856491  -2.390957407
  H    1.703941784  -1.654785077  -2.906971319
  H   -2.652574274  -3.457363022  -4.533902150
  H   -4.188876636  -2.325416392  -0.356853073
  H    2.166943897  -5.167884109   3.743182878
  H    0.730428575  -8.485428014  -6.544964139
  H   -0.474704714   3.682658655  -4.485160571

