%mem=64gb
%nproc=28       
%Chk=snap_58.chk
# opt b3lyp/6-31g(d,p)  scf=(xqc, tight)  pop=min    

tetra snap_58 

2     1 
  O    0.938515636  -5.124081052  -5.734115837
  C    1.251399465  -3.831509256  -6.265366721
  H    2.309036933  -3.837881885  -6.596329440
  H    1.133599427  -3.165429591  -5.372534043
  C    0.334036602  -3.388261733  -7.403298513
  H    0.597808147  -2.352438320  -7.731950278
  O    0.604144535  -4.212825668  -8.580760003
  C   -0.595361065  -4.787181898  -9.103492174
  H   -0.502538160  -4.725022026 -10.217983812
  C   -1.189466362  -3.508016123  -7.137955444
  H   -1.426527010  -4.190248137  -6.294918767
  C   -1.769859566  -4.059985302  -8.452960038
  H   -2.123764116  -3.215735237  -9.089666314
  H   -2.673856133  -4.679259946  -8.295748907
  O   -1.721844070  -2.196213339  -6.917468432
  N   -0.528542389  -6.250248490  -8.733615412
  C    0.297467231  -7.190868661  -9.395353171
  C    0.440865307  -8.306793918  -8.517163399
  N   -0.294292347  -8.036066355  -7.352552778
  C   -0.869859960  -6.819966935  -7.487708771
  N    0.824120242  -7.091627596 -10.649146296
  C    1.550420361  -8.189010639 -11.057195571
  N    1.780167592  -9.313582721 -10.236032377
  C    1.234447488  -9.456209340  -8.883999133
  N    2.067074223  -8.163644409 -12.325412006
  H    1.894426701  -7.357332139 -12.923003991
  H    2.605231910  -8.922539686 -12.717157868
  O    1.498966376 -10.461609251  -8.280963467
  H   -1.583883353  -6.359860214  -6.740006627
  H    2.352527861 -10.102695828 -10.571111228
  P   -1.879779328  -1.812584246  -5.294583022
  O   -2.679732349  -0.378719641  -5.502770874
  C   -1.878571110   0.812303543  -5.487362422
  H   -2.427140456   1.477151134  -6.187815386
  H   -0.853737400   0.648488298  -5.874474830
  C   -1.867165563   1.391800897  -4.060939718
  H   -0.913656612   1.189681648  -3.514399538
  O   -1.862359597   2.852104701  -4.178180755
  C   -3.097972913   3.415320178  -3.731151094
  H   -2.809294055   4.322782989  -3.140189521
  C   -3.128178220   1.017782094  -3.238767990
  H   -3.774853636   0.259654475  -3.750551505
  C   -3.869485141   2.341969247  -2.974873257
  H   -3.857775124   2.540585542  -1.871188120
  H   -4.940140374   2.262880944  -3.231629334
  O   -2.747881023   0.568867131  -1.932020615
  O   -0.554790795  -1.779228068  -4.642060285
  O   -3.087387333  -2.856781297  -4.992415287
  N   -3.794817863   3.881242656  -4.984023218
  C   -3.144598469   4.343216205  -6.123576759
  C   -4.158495612   4.744971955  -7.051925316
  N   -5.420828795   4.523609803  -6.484471217
  C   -5.203202981   4.015951950  -5.269791971
  N   -1.788224214   4.449732484  -6.431105713
  C   -1.482334055   4.993320811  -7.690634814
  N   -2.383436266   5.384221401  -8.578290293
  C   -3.768182861   5.289462508  -8.317648311
  H   -0.404791700   5.097055638  -7.950080646
  N   -4.622605459   5.711264386  -9.262564561
  H   -4.292477943   6.101524107 -10.145733799
  H   -5.631970322   5.670090019  -9.115849667
  H   -5.967041153   3.737430039  -4.548551291
  P   -2.238150204  -1.005289486  -1.786307876
  O   -0.716548370  -0.596943777  -1.369733558
  C    0.291478147  -1.646240090  -1.417673955
  H    0.282198843  -2.158114161  -2.412058514
  H    1.237655733  -1.080012429  -1.302723151
  C   -0.029992359  -2.547084703  -0.225690199
  H    0.048657372  -2.016260123   0.753739340
  O   -1.474919306  -2.778076369  -0.418030378
  C   -1.771136412  -4.198187832  -0.511543194
  H   -2.703579463  -4.303281687   0.095892490
  C    0.633790899  -3.935868017  -0.158050555
  H    1.258841202  -4.155439211  -1.061443440
  C   -0.542300364  -4.915301936   0.037748497
  H   -0.350308401  -5.901328590  -0.438434651
  H   -0.678291253  -5.158530856   1.114851944
  O    1.485182715  -3.909209135   1.009973708
  O   -2.470411273  -1.768545682  -3.051794757
  O   -3.240604027  -1.383595144  -0.563704755
  N   -2.060637170  -4.553759604  -1.929272651
  C   -1.005895981  -4.691237244  -2.886883324
  N   -1.357145421  -5.228666488  -4.137697075
  C   -2.676489414  -5.613529681  -4.520219827
  C   -3.715866595  -5.369969783  -3.506420910
  C   -3.395956005  -4.857843562  -2.291591094
  O    0.152952070  -4.396869827  -2.648553456
  H   -0.535514386  -5.415946186  -4.789533225
  O   -2.826399537  -6.067906719  -5.645390878
  C   -5.110735977  -5.684247236  -3.915484671
  H   -5.491243760  -4.927157238  -4.625081647
  H   -5.164791362  -6.652196330  -4.445130341
  H   -5.815503882  -5.735399089  -3.075218882
  H   -4.158161060  -4.647785269  -1.528289441
  P    2.460735701  -5.242066604   1.109555450
  O    3.551147856  -4.909580631  -0.059746664
  C    4.516587635  -5.972460519  -0.318494153
  H    5.480357133  -5.548809012   0.047824746
  H    4.287650684  -6.916513208   0.220782582
  C    4.564001806  -6.223960236  -1.825830074
  H    5.589107494  -6.574166078  -2.107896571
  O    3.708637563  -7.368857106  -2.121591673
  C    2.885001047  -7.105581317  -3.272951376
  H    3.266186527  -7.768935457  -4.088895788
  C    4.099381905  -5.046122833  -2.725054693
  H    3.833651659  -4.134227386  -2.138108004
  C    2.948768368  -5.607266774  -3.565908533
  H    1.984261505  -5.092364104  -3.342820536
  H    3.079089658  -5.407375502  -4.648014231
  O    5.175330102  -4.578298978  -3.522446642
  O    1.763571919  -6.537653987   0.987713272
  O    3.281391061  -4.932551424   2.475454957
  N    1.495151147  -7.567526642  -2.929176652
  C    0.555046589  -7.753726112  -4.027876827
  N   -0.722264009  -8.196220546  -3.749458993
  C   -1.089035670  -8.438246402  -2.452054579
  C   -0.168358622  -8.278118319  -1.365868129
  C    1.115023808  -7.857075648  -1.628468806
  O    0.928914598  -7.497015598  -5.172225382
  N   -2.416017362  -8.755249392  -2.238718929
  H   -2.693868753  -9.195885783  -1.372385055
  H   -3.002271152  -8.964027397  -3.041467229
  H    1.007830999  -5.825416354  -6.419047906
  H    1.873257384  -7.733813709  -0.824278918
  H   -0.454655259  -8.519702793  -0.341848832
  H    5.502784721  -5.254412941  -4.152852726
  H   -3.352725884  -2.961237720  -4.005240104
  H   -2.858322962  -1.433268641   0.365256849
  H    2.913027397  -5.260191973   3.344398246
  H   -0.265143687  -8.587877942  -6.481122119
  H   -1.085855684   4.118881716  -5.750558606

