%mem=64gb
%nproc=28       
%Chk=snap_110.chk
# opt b3lyp/6-31g(d,p)  scf=(xqc, tight)  pop=min    

tetra snap_110 

2     1 
  O    3.150631710  -5.138258236  -6.854622204
  C    3.074699304  -3.848667789  -7.465499663
  H    3.782569308  -3.953506204  -8.321181259
  H    3.458463837  -3.088607920  -6.756387142
  C    1.687160768  -3.456101605  -7.975406407
  H    1.720424201  -2.421945629  -8.406366465
  O    1.362327133  -4.313735181  -9.122451595
  C    0.039347906  -4.821426165  -9.022884491
  H   -0.395500864  -4.790429673 -10.050335990
  C    0.486732177  -3.577824148  -7.003627291
  H    0.671983381  -4.280859934  -6.157144421
  C   -0.669302283  -4.039883939  -7.911394301
  H   -1.225312244  -3.171525258  -8.321571716
  H   -1.439142884  -4.627560654  -7.363264014
  O    0.284695824  -2.241078275  -6.511311609
  N    0.142068857  -6.272300122  -8.608926773
  C   -0.923423581  -7.198164206  -8.666823291
  C   -0.583806565  -8.264596951  -7.786688222
  N    0.674764658  -7.979829274  -7.225349690
  C    1.092826680  -6.784142572  -7.706876370
  N   -2.057093893  -7.127195458  -9.428107508
  C   -2.929543540  -8.169418607  -9.241475782
  N   -2.688502539  -9.249907708  -8.360692998
  C   -1.492121191  -9.352462872  -7.532600219
  N   -4.113111594  -8.130556174  -9.943367098
  H   -4.244917685  -7.398553455 -10.638583025
  H   -4.737527290  -8.920590176  -9.998443750
  O   -1.405402973 -10.283346587  -6.768901811
  H    2.073367220  -6.234593969  -7.471973201
  H   -3.399542717  -9.979896540  -8.218949439
  P   -0.671769186  -2.073757268  -5.167589486
  O   -1.651730288  -0.855693932  -5.715017972
  C   -1.250647339   0.486675972  -5.408303872
  H   -1.712565903   1.071681038  -6.233460760
  H   -0.152600851   0.622687391  -5.442398633
  C   -1.841341219   0.878541350  -4.041486992
  H   -1.162035360   0.635720975  -3.187300370
  O   -1.900414466   2.339354332  -3.998629293
  C   -3.248800488   2.806358962  -3.858215934
  H   -3.250435580   3.438400710  -2.931397578
  C   -3.288618283   0.355643414  -3.854836736
  H   -3.579819415  -0.389774581  -4.638408759
  C   -4.187805845   1.602442075  -3.843841700
  H   -4.819295528   1.585562750  -2.920493583
  H   -4.904209211   1.576380797  -4.687017286
  O   -3.481730025  -0.207901975  -2.546788202
  O    0.187819072  -1.777010154  -3.996344633
  O   -1.571412178  -3.409870503  -5.366047888
  N   -3.496162151   3.710348503  -5.031955994
  C   -2.540331487   4.309919732  -5.841760872
  C   -3.238753364   5.193777820  -6.728860864
  N   -4.613080275   5.133099113  -6.459146787
  C   -4.761623447   4.266724718  -5.457675156
  N   -1.153824643   4.173603017  -5.891428802
  C   -0.488998230   4.965425306  -6.846101409
  N   -1.089251495   5.797323442  -7.681266808
  C   -2.491021364   5.976998946  -7.666785026
  H    0.619002599   4.870924346  -6.897692189
  N   -3.023414754   6.866829155  -8.517713612
  H   -2.439086011   7.407782740  -9.157932228
  H   -4.030127951   7.038722561  -8.541307316
  H   -5.695593375   3.989671899  -4.976628562
  P   -2.799024765  -1.685144718  -2.249765326
  O   -1.714121272  -1.141321756  -1.160724712
  C   -0.542474722  -1.991426651  -1.004050066
  H   -0.086399334  -2.208570511  -2.000454641
  H    0.146225535  -1.349418103  -0.414530452
  C   -1.029522679  -3.207685858  -0.226340795
  H   -1.306346468  -2.945704448   0.824127880
  O   -2.293648540  -3.554111681  -0.892691874
  C   -2.431410612  -5.014676754  -1.025123263
  H   -3.434337489  -5.214526226  -0.572076624
  C   -0.184443395  -4.497064879  -0.267466882
  H    0.474011570  -4.562738005  -1.180138353
  C   -1.252419109  -5.609649353  -0.254817122
  H   -0.857729252  -6.561058532  -0.677490503
  H   -1.534904128  -5.862027642   0.791397712
  O    0.564952963  -4.510533552   0.951720010
  O   -2.275548735  -2.297593864  -3.511160686
  O   -4.112974377  -2.385447702  -1.599337608
  N   -2.483706023  -5.333744665  -2.475734711
  C   -1.335134928  -5.813188456  -3.188642328
  N   -1.531627247  -6.218971448  -4.519699955
  C   -2.765156244  -6.103746511  -5.241168438
  C   -3.863939592  -5.493716861  -4.465555429
  C   -3.711550836  -5.147098480  -3.163860305
  O   -0.237008720  -5.885160275  -2.661530807
  H   -0.677780960  -6.572303185  -5.004708463
  O   -2.777829066  -6.487329769  -6.391126007
  C   -5.132320956  -5.260174211  -5.208723504
  H   -5.162061370  -4.243316053  -5.631704203
  H   -5.238714193  -5.956544307  -6.059847145
  H   -6.027296744  -5.388728120  -4.583654974
  H   -4.525379686  -4.686841631  -2.580200141
  P    2.093072591  -5.149064694   0.860038392
  O    2.851202581  -3.769837348   0.381666299
  C    4.171631140  -3.884213080  -0.208464964
  H    4.740282876  -3.089811447   0.325975379
  H    4.648693593  -4.867280457  -0.017983231
  C    4.101438612  -3.596740083  -1.712653705
  H    4.993457637  -3.017081763  -2.061606236
  O    4.224237598  -4.880616853  -2.404520972
  C    3.175029880  -5.022969267  -3.373960516
  H    3.651221469  -4.878084390  -4.379720714
  C    2.785533938  -2.935679944  -2.183631559
  H    2.182759189  -2.546659841  -1.334997961
  C    2.085180551  -4.004092545  -3.027906738
  H    1.235437176  -4.484369530  -2.484821708
  H    1.619578795  -3.566828097  -3.931048079
  O    3.161159045  -1.817068113  -2.995179072
  O    2.318823806  -6.348010259   0.050701605
  O    2.408170896  -5.249254430   2.446147647
  N    2.677832729  -6.437817026  -3.314153357
  C    1.743127880  -6.847218273  -4.333325525
  N    1.292352158  -8.141726603  -4.381335065
  C    1.613964929  -9.007856279  -3.354384549
  C    2.468245317  -8.590351501  -2.281549556
  C    2.985067806  -7.316976328  -2.275607157
  O    1.394957573  -6.008611915  -5.186303859
  N    1.071872240 -10.257871972  -3.442368934
  H    1.262148364 -10.969763495  -2.752635285
  H    0.471185853 -10.511333291  -4.220852882
  H    2.696693511  -5.161274902  -5.958513498
  H    3.662018409  -6.942233793  -1.484171622
  H    2.694737186  -9.263088226  -1.453237538
  H    2.357555036  -1.483827825  -3.478407956
  H   -2.255660370  -3.598380627  -4.612196190
  H   -4.122830858  -2.505193396  -0.597973834
  H    2.145072611  -4.480647910   3.032511711
  H    1.077239547  -8.494819738  -6.429344422
  H   -0.683836005   3.553830077  -5.211627592

