%mem=64gb
%nproc=28       
%Chk=snap_175.chk
# opt b3lyp/6-31g(d,p)  scf=(xqc, tight)  pop=min    

tetra snap_175 

2     1 
  O    0.681923253  -1.643468192  -6.290760040
  C    0.709248392  -2.723190505  -7.212983440
  H    0.977626434  -3.667396076  -6.682691807
  H    1.541704254  -2.456162953  -7.900851816
  C   -0.616650983  -2.833414710  -7.984092318
  H   -0.833589588  -1.908089038  -8.566872731
  O   -0.413646789  -3.870526909  -9.002228497
  C   -1.404649140  -4.887551299  -8.917828565
  H   -1.679466953  -5.157038563  -9.967969167
  C   -1.852833449  -3.278451593  -7.162853443
  H   -1.579520035  -3.647741853  -6.144993868
  C   -2.523816811  -4.368093346  -8.011614801
  H   -3.353675526  -3.923042410  -8.612147308
  H   -3.013930004  -5.154418862  -7.408843938
  O   -2.773858216  -2.152918204  -7.119329207
  N   -0.723999420  -6.087737047  -8.298425430
  C   -1.158820160  -7.429891386  -8.327692423
  C   -0.218293017  -8.173296543  -7.553202938
  N    0.767055796  -7.292879182  -7.092685464
  C    0.454242569  -6.052176450  -7.523092629
  N   -2.265466656  -7.955557189  -8.924680156
  C   -2.411346410  -9.319498256  -8.759066421
  N   -1.486733150 -10.134970463  -8.060419786
  C   -0.356098432  -9.592528130  -7.337278621
  N   -3.499531354  -9.902646140  -9.347887351
  H   -4.156788147  -9.327628106  -9.871634960
  H   -3.743110233 -10.873434831  -9.213618552
  O    0.316649091 -10.313458816  -6.635535574
  H    1.033112038  -5.131682040  -7.299355704
  H   -1.707856117 -11.125183991  -7.869445793
  P   -2.924939779  -1.478876873  -5.625299475
  O   -3.077326637   0.138964203  -5.827695411
  C   -1.906321669   0.903300132  -6.176365830
  H   -2.332869796   1.930711102  -6.220749186
  H   -1.558853341   0.613265923  -7.189959134
  C   -0.766880513   0.812119007  -5.148454887
  H   -0.047989526  -0.025353477  -5.388013190
  O    0.054036275   2.010401200  -5.326162268
  C    0.273288959   2.692286166  -4.083471735
  H    1.388841497   2.774335711  -3.984983525
  C   -1.193361892   0.778235395  -3.663196440
  H   -2.303006065   0.850348201  -3.525216534
  C   -0.439361078   1.926315601  -2.973063460
  H    0.289934115   1.507461338  -2.233796350
  H   -1.127955317   2.538106539  -2.358762619
  O   -0.641155032  -0.430363853  -3.093902039
  O   -1.625798917  -1.851342482  -4.909253939
  O   -4.385353341  -1.987524756  -5.210516771
  N   -0.276993618   4.076184879  -4.274348443
  C   -0.460736471   4.732972993  -5.485562712
  C   -0.875591462   6.068878387  -5.174720909
  N   -0.937855116   6.227608183  -3.783577565
  C   -0.579265034   5.058512814  -3.255258897
  N   -0.304758969   4.307890676  -6.804410375
  C   -0.557754271   5.272878030  -7.798132675
  N   -0.942347868   6.515218171  -7.557819165
  C   -1.119144965   6.994253110  -6.240343819
  H   -0.427451958   4.954273395  -8.856973944
  N   -1.492506592   8.270795730  -6.068986457
  H   -1.643982424   8.895584221  -6.862386274
  H   -1.628162885   8.657612219  -5.133008895
  H   -0.495293958   4.831307193  -2.195240632
  P   -1.762398781  -1.593780773  -2.735780801
  O   -1.005143987  -3.038772812  -2.936206396
  C   -1.910155267  -4.173934403  -2.952143517
  H   -2.885421740  -3.960263266  -3.427462577
  H   -1.360582388  -4.911762402  -3.581484939
  C   -2.069675909  -4.645031043  -1.499434421
  H   -2.493223969  -3.865704750  -0.818044751
  O   -3.067026757  -5.693726726  -1.484182982
  C   -2.508635417  -6.934517655  -1.015989681
  H   -3.269917406  -7.329243788  -0.298151484
  C   -0.757350481  -5.238972663  -0.931532978
  H    0.062193117  -5.295570669  -1.690984310
  C   -1.145069635  -6.624862224  -0.390368972
  H   -0.368593024  -7.383725156  -0.628514424
  H   -1.219740669  -6.620929507   0.718255371
  O   -0.403247536  -4.311512255   0.121803150
  O   -3.138386202  -1.312756178  -3.282241452
  O   -1.689295338  -1.521224115  -1.106533725
  N   -2.457378918  -7.853044561  -2.204080751
  C   -1.488233200  -7.669483304  -3.230647389
  N   -1.661579267  -8.431539297  -4.408714246
  C   -2.780731103  -9.296571436  -4.673647117
  C   -3.719695824  -9.437215571  -3.553520751
  C   -3.551358386  -8.731940910  -2.407701965
  O   -0.543153304  -6.901233925  -3.132029159
  H   -0.895760008  -8.385104886  -5.090855296
  O   -2.842694636  -9.788689512  -5.782926040
  C   -4.844711219 -10.394820931  -3.738929553
  H   -5.814795001  -9.964809168  -3.446904614
  H   -4.944911645 -10.714048409  -4.790606705
  H   -4.698260237 -11.313498195  -3.146442215
  H   -4.256195972  -8.820489765  -1.567325004
  P    1.164810138  -4.398884791   0.641175503
  O    1.559416189  -2.854316024   0.235533628
  C    2.971094788  -2.587191250   0.011172178
  H    3.132845782  -1.655426084   0.598202881
  H    3.632899365  -3.392973118   0.395391156
  C    3.231156276  -2.347726934  -1.478469148
  H    4.053416627  -1.600385624  -1.623123843
  O    3.758559579  -3.590252937  -2.033734739
  C    3.163915676  -3.863049885  -3.313990486
  H    3.976166729  -3.712648261  -4.069686534
  C    1.988987784  -1.965468976  -2.308692115
  H    1.062200383  -1.965536346  -1.697817608
  C    1.947850557  -2.948229142  -3.482908260
  H    0.990229497  -3.509232204  -3.517890132
  H    1.994011569  -2.417830952  -4.461399969
  O    2.213530494  -0.623450178  -2.773320851
  O    1.995276402  -5.498538238   0.144302761
  O    0.947457829  -4.312849475   2.246618356
  N    2.785042127  -5.321772063  -3.338099504
  C    2.253794642  -5.824053508  -4.590301136
  N    2.054155879  -7.185707090  -4.731299635
  C    2.254164075  -8.032759143  -3.667439809
  C    2.751687005  -7.534540014  -2.419014108
  C    3.021836995  -6.193697131  -2.280089649
  O    2.002507785  -5.026161288  -5.490372455
  N    1.910572745  -9.345351418  -3.875043410
  H    2.169548381 -10.061544256  -3.211626046
  H    1.635674827  -9.669293829  -4.800519874
  H    0.033410529  -1.813221789  -5.538514683
  H    3.426229257  -5.755537724  -1.342689886
  H    2.913146464  -8.204117430  -1.574297687
  H    1.419776904  -0.352370927  -3.291155829
  H   -4.694809192  -1.744137037  -4.247695200
  H   -1.026191646  -2.104021854  -0.628624685
  H    0.362722425  -3.591649637   2.613839256
  H    1.514164313  -7.534358260  -6.362742248
  H    0.022382347   3.347188072  -6.991488190

