%mem=64gb
%nproc=28       
%Chk=snap_87.chk
# opt b3lyp/6-31g(d,p)  scf=(xqc, tight)  pop=min    

tetra snap_87 

2     1 
  O    2.756644597  -4.774370658  -7.471125854
  C    2.459079004  -3.561582062  -8.173187142
  H    3.049900363  -3.680976013  -9.112104986
  H    2.846782977  -2.702133756  -7.593153954
  C    0.978863188  -3.365809889  -8.503315030
  H    0.826350753  -2.365286918  -8.984114038
  O    0.619449981  -4.327622410  -9.554499245
  C   -0.603465265  -4.983838351  -9.250354709
  H   -1.163544223  -5.086089251 -10.209383070
  C   -0.059950831  -3.565528785  -7.369404749
  H    0.328278477  -4.183430871  -6.524961209
  C   -1.254647071  -4.214534939  -8.097730685
  H   -1.954978916  -3.436055419  -8.471477297
  H   -1.888397839  -4.841961147  -7.434267691
  O   -0.375771821  -2.237631787  -6.926880514
  N   -0.250288598  -6.374858048  -8.763650860
  C   -1.171033078  -7.433016069  -8.593202323
  C   -0.592729012  -8.326182126  -7.643196006
  N    0.667444085  -7.815833031  -7.281511713
  C    0.853347173  -6.647061367  -7.933900819
  N   -2.371030962  -7.620441711  -9.220282721
  C   -3.058823374  -8.733580815  -8.811625223
  N   -2.579388556  -9.641462415  -7.832455223
  C   -1.317762090  -9.458624658  -7.138028092
  N   -4.298684765  -8.952123098  -9.365226020
  H   -4.619466328  -8.332179758 -10.107487927
  H   -4.791208188  -9.826903981  -9.262997673
  O   -1.031853558 -10.231665485  -6.248855952
  H    1.779564567  -5.948854294  -7.874158275
  H   -3.160237671 -10.429475690  -7.516785997
  P   -1.068998240  -2.119852771  -5.417957836
  O   -1.862837688  -0.692633162  -5.715073602
  C   -1.182827135   0.520602170  -5.367577196
  H   -1.475774778   1.213975824  -6.185498816
  H   -0.080396309   0.414807892  -5.356971935
  C   -1.720170878   1.006644103  -4.008889855
  H   -1.054250806   0.728325288  -3.153975353
  O   -1.642242155   2.470892802  -4.022750175
  C   -2.912780019   3.068075819  -3.734250083
  H   -2.743970302   3.711820944  -2.830875403
  C   -3.203659123   0.630752037  -3.763778635
  H   -3.627820834  -0.007696580  -4.579626223
  C   -3.952596653   1.962124993  -3.580428502
  H   -4.413296497   1.972534685  -2.559394696
  H   -4.805638265   2.036317663  -4.280941570
  O   -3.386119915  -0.020782700  -2.497201277
  O   -0.052346722  -2.131950123  -4.346418857
  O   -2.209785107  -3.258619291  -5.638728744
  N   -3.217357358   3.978214885  -4.891641487
  C   -2.320522988   4.479213301  -5.825626413
  C   -3.053707461   5.377774267  -6.669323311
  N   -4.387829435   5.431613598  -6.243688086
  C   -4.481198270   4.613381791  -5.195946272
  N   -0.958662469   4.250916259  -6.018667617
  C   -0.357629915   4.956606009  -7.076881108
  N   -0.994683807   5.789474636  -7.883952731
  C   -2.372696450   6.059433704  -7.728483890
  H    0.729290703   4.788000487  -7.244396255
  N   -2.950105662   6.929355498  -8.571173657
  H   -2.417077566   7.398388926  -9.304702835
  H   -3.942799726   7.156689288  -8.494566859
  H   -5.373580729   4.428112603  -4.602788168
  P   -2.775926001  -1.547750053  -2.304398222
  O   -1.501959829  -1.051336380  -1.412961842
  C   -0.394084459  -1.988136301  -1.314016709
  H   -0.079536667  -2.324897486  -2.333645518
  H    0.410569792  -1.365408221  -0.869477501
  C   -0.890702138  -3.090740807  -0.386325678
  H   -1.079121508  -2.719638737   0.650037784
  O   -2.222868191  -3.394786792  -0.937465663
  C   -2.417262544  -4.839068635  -1.072381640
  H   -3.427408273  -5.001869398  -0.620338442
  C   -0.129962494  -4.431576913  -0.362364855
  H    0.534757828  -4.570084422  -1.264874022
  C   -1.261752772  -5.478579820  -0.305809274
  H   -0.944081920  -6.467475008  -0.707010108
  H   -1.556828681  -5.701331632   0.744181460
  O    0.693737697  -4.374575046   0.810104767
  O   -2.497273640  -2.215445801  -3.612091091
  O   -4.036252394  -2.138561019  -1.467286957
  N   -2.479083857  -5.181084012  -2.520489076
  C   -1.318719580  -5.590072942  -3.254478531
  N   -1.526624113  -6.068686276  -4.562878746
  C   -2.794271708  -6.113782644  -5.226237077
  C   -3.910982383  -5.551569454  -4.445623437
  C   -3.736051925  -5.116542982  -3.172843162
  O   -0.199674494  -5.572721449  -2.771817431
  H   -0.671835103  -6.403254206  -5.050421430
  O   -2.820262999  -6.583471719  -6.345717260
  C   -5.226105847  -5.476723400  -5.139018612
  H   -5.199158326  -5.986742722  -6.119041423
  H   -6.031087476  -5.954091574  -4.560118246
  H   -5.525869417  -4.436129979  -5.337942821
  H   -4.561287270  -4.682802986  -2.588433942
  P    1.607388919  -5.732292433   1.113509308
  O    2.780781931  -5.675160537  -0.020107121
  C    3.965235340  -4.862679122   0.196906638
  H    3.907945945  -4.251550329   1.121935671
  H    4.787317303  -5.606228644   0.303620207
  C    4.176205658  -3.989798586  -1.043579424
  H    5.121407052  -3.402272787  -0.925530415
  O    4.454901729  -4.826868303  -2.201410750
  C    3.406702398  -4.744988754  -3.176443507
  H    3.928436054  -4.513252126  -4.136767916
  C    2.973111475  -3.087453406  -1.420149989
  H    2.245549229  -2.979978413  -0.583726638
  C    2.391149295  -3.705891624  -2.696654250
  H    1.394587076  -4.181525037  -2.504527272
  H    2.153393517  -2.946569993  -3.473138073
  O    3.381011922  -1.740768388  -1.607865921
  O    0.861586565  -6.988689382   1.141302283
  O    2.380071460  -5.181851313   2.441396866
  N    2.793499196  -6.116713826  -3.317750580
  C    1.888720802  -6.358182548  -4.420470902
  N    1.346701983  -7.616568834  -4.582672545
  C    1.523748902  -8.581125438  -3.612905854
  C    2.358856599  -8.325853291  -2.473392970
  C    2.984161699  -7.110247093  -2.360344436
  O    1.632251585  -5.439893098  -5.204791457
  N    0.874056800  -9.761656314  -3.821323727
  H    0.960166897 -10.539158693  -3.183309492
  H    0.280863271  -9.901272782  -4.642562248
  H    2.516357035  -4.711663234  -6.494219844
  H    3.670425486  -6.873306428  -1.526776626
  H    2.491320785  -9.083626885  -1.700653149
  H    4.028982400  -1.645015071  -2.340629443
  H   -2.806366992  -3.445120593  -4.821987274
  H   -3.924394670  -2.248171913  -0.472236860
  H    2.029379502  -5.437043040   3.340567288
  H    1.214478104  -8.162246945  -6.477362773
  H   -0.456755023   3.624049979  -5.370644655

