%mem=64gb
%nproc=28       
%Chk=snap_28.chk
# opt b3lyp/6-31g(d,p)  scf=(xqc, tight)  pop=min    

tetra snap_28 

2     1 
  O    2.337151284  -4.238538015  -7.745593154
  C    2.376825162  -2.851450309  -8.132651101
  H    3.263548181  -2.807237992  -8.803621296
  H    2.563433390  -2.247117356  -7.217882457
  C    1.119320152  -2.375184857  -8.856640860
  H    1.160365448  -1.269341944  -9.019921483
  O    1.138130090  -2.932426263 -10.216699329
  C   -0.100017503  -3.547708551 -10.531094874
  H   -0.309939837  -3.315143851 -11.603353874
  C   -0.252379384  -2.784647329  -8.252460720
  H   -0.182016689  -3.676184146  -7.582359305
  C   -1.121473108  -3.096823043  -9.483282971
  H   -1.667072666  -2.183680585  -9.808562260
  H   -1.913733042  -3.838042156  -9.271125215
  O   -0.816268568  -1.648148386  -7.591066185
  N    0.114630712  -5.043691411 -10.421005520
  C   -0.633317955  -6.035090721 -11.090441454
  C   -0.188293766  -7.289374276 -10.587233498
  N    0.818023665  -7.036213590  -9.631407156
  C    0.986805832  -5.694949008  -9.538044885
  N   -1.598301780  -5.852650668 -12.043354300
  C   -2.134875285  -7.017170076 -12.540139617
  N   -1.762359094  -8.301049766 -12.084619200
  C   -0.753314174  -8.533290098 -11.051410848
  N   -3.104673475  -6.908524990 -13.505030483
  H   -3.348511494  -5.990439301 -13.869380511
  H   -3.492547200  -7.709902160 -13.981566102
  O   -0.532777452  -9.670022295 -10.728228909
  H    1.726753880  -5.104540229  -8.830065699
  H   -2.204413268  -9.146752557 -12.473300131
  P   -0.668570783  -1.691275314  -5.926695887
  O   -1.183447747  -0.130880005  -5.755465828
  C   -0.267838758   0.754513979  -5.065531638
  H    0.063741426   1.493493755  -5.828939731
  H    0.622702390   0.223372788  -4.660532018
  C   -1.072298708   1.437654903  -3.958139623
  H   -0.472603453   1.568036375  -3.022953310
  O   -1.321755545   2.817983675  -4.389789713
  C   -2.698249605   3.145628758  -4.291926693
  H   -2.731751109   4.158357645  -3.829464633
  C   -2.466947919   0.810922230  -3.673825655
  H   -2.816679408   0.108882856  -4.470440654
  C   -3.404354956   2.023319108  -3.528542723
  H   -3.516624007   2.269205353  -2.445390855
  H   -4.430848061   1.807979802  -3.877230734
  O   -2.469782820   0.154140785  -2.408141442
  O    0.702386462  -2.053505893  -5.512935693
  O   -1.925397583  -2.683872419  -5.651856890
  N   -3.216066988   3.241791869  -5.704677582
  C   -3.939896674   4.283180551  -6.276316047
  C   -4.204789939   3.905070910  -7.634305525
  N   -3.631509979   2.651139383  -7.892223789
  C   -3.046512218   2.266753163  -6.757845081
  N   -4.409345121   5.496892798  -5.768880633
  C   -5.134093414   6.310044131  -6.665016070
  N   -5.399814953   5.995693029  -7.920355448
  C   -4.952045870   4.780783351  -8.483398646
  H   -5.508131952   7.282493759  -6.271116711
  N   -5.255545984   4.523996835  -9.765927616
  H   -5.791402179   5.184482010 -10.329401634
  H   -4.951232871   3.659122787 -10.213485012
  H   -2.483617006   1.338153611  -6.598246451
  P   -1.677509161  -1.312240440  -2.323665185
  O   -0.620752716  -0.704916838  -1.246296392
  C    0.480969740  -1.516486712  -0.769412718
  H    1.116502483  -1.849759846  -1.622977766
  H    1.045917219  -0.799077887  -0.136639813
  C   -0.146619154  -2.658059842   0.025663556
  H   -0.684296290  -2.311611338   0.942077346
  O   -1.207313916  -3.123920140  -0.876473849
  C   -1.041939668  -4.540559515  -1.202667133
  H   -2.054525975  -4.969083633  -0.993362231
  C    0.765835620  -3.863101345   0.337227699
  H    1.816792944  -3.718525362  -0.016463696
  C    0.072365259  -5.067659896  -0.307332748
  H    0.823815231  -5.674876195  -0.877144540
  H   -0.362323595  -5.780179053   0.443817102
  O    0.802969346  -3.901986877   1.779034229
  O   -1.163976645  -1.799367358  -3.642556891
  O   -2.983967240  -2.152113724  -1.844382852
  N   -0.747145141  -4.644252480  -2.656313853
  C    0.543555027  -4.262654484  -3.155947481
  N    0.779386017  -4.530816018  -4.522318620
  C   -0.118538722  -5.226118409  -5.375260584
  C   -1.367555796  -5.674675429  -4.763984835
  C   -1.633405262  -5.402068097  -3.459902179
  O    1.384528441  -3.730311419  -2.454645818
  H    1.626052809  -4.087103589  -4.928343293
  O    0.223743315  -5.346576592  -6.553953154
  C   -2.308886334  -6.453780965  -5.615407870
  H   -3.321456987  -6.026252211  -5.614123111
  H   -1.976585219  -6.492436767  -6.664855990
  H   -2.381284622  -7.498388645  -5.266021097
  H   -2.549336809  -5.762444030  -2.967296604
  P    1.242744086  -5.314683082   2.503957869
  O    2.746523593  -5.531516110   1.910422532
  C    3.400464057  -6.771429605   2.317103127
  H    4.273094019  -6.419770673   2.914546323
  H    2.757194850  -7.426215093   2.939628059
  C    3.859679595  -7.513396978   1.059485555
  H    4.788628281  -8.095442944   1.285548178
  O    2.894434591  -8.551861459   0.732263077
  C    2.310187518  -8.349960928  -0.568005918
  H    2.538286896  -9.284561813  -1.138403634
  C    4.027766721  -6.625333444  -0.200787200
  H    4.006422161  -5.533366673   0.032820090
  C    2.913751648  -7.071371700  -1.158590441
  H    2.154971456  -6.266169298  -1.291832327
  H    3.291977488  -7.233674863  -2.188686842
  O    5.321387378  -6.785325990  -0.754757182
  O    0.300982002  -6.439085760   2.348857373
  O    1.514376338  -4.787883883   4.018419316
  N    0.817785139  -8.281282143  -0.378250632
  C   -0.035404486  -7.900585439  -1.521490309
  N   -1.405553530  -7.909876835  -1.339836640
  C   -1.940757855  -8.337167414  -0.155142330
  C   -1.123160954  -8.706330167   0.960009264
  C    0.243809934  -8.651795078   0.832192041
  O    0.531905480  -7.534750625  -2.537304807
  N   -3.319510593  -8.317308241  -0.063618138
  H   -3.779070329  -8.778508042   0.708364567
  H   -3.869898897  -8.211248897  -0.905955795
  H    1.638476264  -4.377751423  -7.025039067
  H    0.923560314  -8.900667378   1.664653165
  H   -1.567019434  -8.979235445   1.915396696
  H    5.484220187  -7.696777852  -1.082978184
  H   -2.048423254  -2.973206817  -4.673268889
  H   -3.098003997  -2.351898953  -0.866116781
  H    0.769778233  -4.844296723   4.680603840
  H    1.305097906  -7.762746856  -9.115077587
  H   -4.210522723   5.791650127  -4.810131644

