%mem=64gb
%nproc=28       
%Chk=snap_14.chk
# opt b3lyp/6-31g(d,p)  scf=(xqc, tight)  pop=min    

tetra snap_14 

2     1 
  O    2.367547298  -3.537850690  -7.946596079
  C    2.251616471  -2.383629588  -8.799482441
  H    3.009897834  -2.579909589  -9.590595445
  H    2.546968338  -1.490096511  -8.211335284
  C    0.859361112  -2.208971838  -9.410135541
  H    0.741273391  -1.191279390  -9.855913891
  O    0.741872958  -3.118516395 -10.559108990
  C   -0.440656876  -3.901588728 -10.469622848
  H   -0.835779913  -4.007457126 -11.509691863
  C   -0.334881074  -2.567427216  -8.491824945
  H   -0.024237446  -3.292737386  -7.686908826
  C   -1.349124176  -3.236043842  -9.427627902
  H   -2.018233242  -2.478594606  -9.890410632
  H   -2.024496888  -3.934545807  -8.898929753
  O   -0.895492349  -1.342848560  -7.961241244
  N   -0.021615399  -5.274222853  -9.990655461
  C   -0.668079727  -6.488290607 -10.307792512
  C   -0.006624651  -7.508728017  -9.570004039
  N    1.027333626  -6.899253255  -8.827233674
  C    1.003289970  -5.567933999  -9.076936507
  N   -1.725397304  -6.673270786 -11.155027936
  C   -2.129042693  -7.981763821 -11.285834066
  N   -1.532301567  -9.052612525 -10.585133745
  C   -0.411860767  -8.889427262  -9.657908069
  N   -3.193079955  -8.232618249 -12.115572284
  H   -3.590415139  -7.469560400 -12.660531414
  H   -3.489771467  -9.167443035 -12.355967947
  O    0.006477817  -9.873154257  -9.106228613
  H    1.703626022  -4.744806323  -8.602474792
  H   -1.873240012 -10.017454295 -10.706646989
  P   -0.640649961  -1.271249940  -6.333451326
  O   -1.186926846   0.253179307  -6.023458556
  C   -0.652147713   0.846461732  -4.810916243
  H   -0.297777211   1.848837350  -5.147886866
  H    0.216079648   0.280955791  -4.403546796
  C   -1.762926981   1.002982728  -3.765011554
  H   -1.348101558   0.929835234  -2.727027398
  O   -2.209085045   2.395748041  -3.797807013
  C   -3.542024760   2.504461847  -4.277803719
  H   -4.034001239   3.258733741  -3.618901548
  C   -3.028702810   0.127967034  -3.966937331
  H   -2.933655778  -0.636867645  -4.775514479
  C   -4.177257087   1.114807518  -4.246033649
  H   -4.925331972   1.032920535  -3.416448758
  H   -4.746634053   0.847684393  -5.155323018
  O   -3.405475646  -0.507874709  -2.733506080
  O    0.734525719  -1.609540365  -5.903195151
  O   -1.843067809  -2.206598545  -5.793099160
  N   -3.445372645   3.069439647  -5.667705665
  C   -3.523467611   4.415297707  -6.024644935
  C   -3.193467678   4.495145579  -7.417002089
  N   -2.877011412   3.214751745  -7.898565961
  C   -3.006761680   2.385000408  -6.864828111
  N   -3.865781853   5.561469315  -5.305027595
  C   -3.860595404   6.776159993  -6.022776678
  N   -3.565539045   6.889097601  -7.305200704
  C   -3.209911732   5.762983124  -8.079732125
  H   -4.129404791   7.697086321  -5.455827664
  N   -2.907016840   5.955832755  -9.373320459
  H   -2.932598825   6.886068615  -9.793080674
  H   -2.643302293   5.174557943  -9.973891828
  H   -2.800422028   1.309995069  -6.862292470
  P   -2.511914830  -1.814794461  -2.240344150
  O   -1.915297472  -1.103636838  -0.896240572
  C   -0.703870733  -1.682477373  -0.349938050
  H    0.107348099  -1.679290547  -1.114974610
  H   -0.451139380  -0.978679754   0.470933238
  C   -1.053271829  -3.080013684   0.158494598
  H   -1.711451500  -3.073161466   1.060666833
  O   -1.889807372  -3.645079640  -0.911541770
  C   -1.361135904  -4.935924874  -1.368250143
  H   -2.258725657  -5.604270175  -1.330225350
  C    0.148820489  -4.030222023   0.341930701
  H    1.114050850  -3.591394069  -0.020816228
  C   -0.240884738  -5.311539318  -0.404399125
  H    0.646696383  -5.756860790  -0.919582562
  H   -0.570631455  -6.101532275   0.309301025
  O    0.189760289  -4.269054849   1.766621680
  O   -1.518282492  -2.200080092  -3.292455481
  O   -3.773315653  -2.789282462  -1.952380879
  N   -0.911148735  -4.786377442  -2.777219085
  C    0.234540893  -3.983081946  -3.101272122
  N    0.629043258  -3.998201068  -4.462383159
  C    0.023421121  -4.795479848  -5.467094717
  C   -1.143520747  -5.567728931  -5.062822246
  C   -1.556399878  -5.562004040  -3.766165918
  O    0.861399772  -3.352233215  -2.270955367
  H    1.362863379  -3.310426641  -4.741250617
  O    0.518416784  -4.736149536  -6.596222541
  C   -1.832553622  -6.371784194  -6.112183173
  H   -1.185999295  -6.530415386  -6.987841697
  H   -2.109714067  -7.372107036  -5.742851245
  H   -2.747895992  -5.872527494  -6.461593031
  H   -2.403072721  -6.178172001  -3.423478995
  P    1.592015736  -4.870578377   2.372564910
  O    1.675065358  -6.280090230   1.523416115
  C    2.766780776  -7.169900726   1.879224553
  H    3.367784126  -6.794859674   2.732982402
  H    2.257242357  -8.106655692   2.198912397
  C    3.647452710  -7.427622607   0.650404002
  H    4.661810280  -7.772057464   0.973945594
  O    3.138401207  -8.590020858  -0.068038414
  C    2.500168556  -8.211485197  -1.294451775
  H    2.879133624  -8.934722587  -2.055567317
  C    3.729676947  -6.280020037  -0.389585363
  H    3.448400463  -5.277456654   0.017814860
  C    2.838357141  -6.739001929  -1.555868363
  H    1.927231924  -6.099853122  -1.625229289
  H    3.334546701  -6.595845903  -2.535371382
  O    5.072260466  -6.057888014  -0.781698835
  O    1.740295754  -4.881684471   3.820265928
  O    2.710360828  -3.998764903   1.517929767
  N    1.018412058  -8.454927738  -1.119996692
  C    0.082423572  -7.976314911  -2.151992919
  N   -1.274659156  -8.135561279  -1.920687711
  C   -1.709674262  -8.814602553  -0.817167363
  C   -0.800624193  -9.340571883   0.160493585
  C    0.547158786  -9.144809115  -0.016475813
  O    0.563446101  -7.416858247  -3.120942137
  N   -3.075810118  -8.903936311  -0.644140202
  H   -3.459581984  -9.523497991   0.056107451
  H   -3.693041082  -8.667623907  -1.410342718
  H    1.796931605  -3.423682275  -7.120106965
  H    1.294203721  -9.527411167   0.700818079
  H   -1.168125234  -9.889386582   1.025011998
  H    5.468666466  -6.832023596  -1.238038417
  H   -1.741530780  -2.590978580  -4.806379623
  H   -3.825703572  -3.242970982  -1.049270661
  H    3.390555522  -3.474557023   2.012409489
  H    1.644807460  -7.400575395  -8.195799011
  H   -4.063948363   5.527284540  -4.301779067

