%mem=64gb
%nproc=28       
%Chk=snap_187.chk
# opt b3lyp/6-31g(d,p)  scf=(xqc, tight)  pop=min    

tetra snap_187 

2     1 
  O    0.373365134  -1.710303623  -5.981835205
  C    0.535310767  -2.763104292  -6.926308892
  H    0.535352298  -3.741286591  -6.402410998
  H    1.548370992  -2.585363822  -7.346072130
  C   -0.546606222  -2.661092452  -8.009745049
  H   -0.660383331  -1.621692243  -8.390588243
  O   -0.054974284  -3.415919003  -9.169329868
  C   -0.920684897  -4.500431537  -9.474772239
  H   -0.891120970  -4.631999084 -10.583103677
  C   -1.915649764  -3.290488187  -7.636587293
  H   -1.878932964  -3.858648117  -6.677993840
  C   -2.271581316  -4.188869326  -8.830277233
  H   -2.934796476  -3.634104776  -9.537290811
  H   -2.870594732  -5.078285284  -8.551513629
  O   -2.906022573  -2.231002523  -7.600236582
  N   -0.269178353  -5.717035622  -8.836582010
  C   -0.869549700  -6.948567160  -8.506825074
  C    0.082434368  -7.661017576  -7.717104747
  N    1.237103053  -6.876283845  -7.595945017
  C    1.019180868  -5.711623495  -8.248544608
  N   -2.118795416  -7.401366342  -8.825136154
  C   -2.436240356  -8.635985520  -8.297517641
  N   -1.564835830  -9.376138360  -7.465347455
  C   -0.237363999  -8.928456849  -7.116724727
  N   -3.672586047  -9.149257191  -8.574070231
  H   -4.292271170  -8.664627837  -9.219353053
  H   -3.978797603 -10.046857733  -8.217595792
  O    0.401894763  -9.602105664  -6.334899779
  H    1.725192404  -4.876221920  -8.343835945
  H   -1.919683435 -10.208037839  -6.925511867
  P   -3.357308087  -1.781358522  -6.081474158
  O   -3.635584714  -0.168354320  -6.184590746
  C   -2.496629124   0.702415475  -6.330474109
  H   -2.984728577   1.703092887  -6.339666779
  H   -2.018188964   0.533023920  -7.316483912
  C   -1.492320199   0.566432093  -5.178143457
  H   -0.811799563  -0.329277437  -5.304463285
  O   -0.581920533   1.702578589  -5.288059410
  C   -0.269805673   2.205079576  -3.969164979
  H    0.744938140   1.800815605  -3.700365908
  C   -2.105360860   0.609982661  -3.756597515
  H   -3.217924908   0.692811691  -3.755907434
  C   -1.405239156   1.773766161  -3.036126147
  H   -1.021873918   1.432339167  -2.043951599
  H   -2.120760220   2.589200251  -2.808582724
  O   -1.665877387  -0.566744014  -3.043212583
  O   -2.160666705  -2.125528155  -5.191624814
  O   -4.799251808  -2.472953719  -5.972334825
  N   -0.166525052   3.682426066  -4.147172016
  C   -0.020787860   4.372439203  -5.345461688
  C    0.174993700   5.751810761  -5.007757377
  N    0.151732019   5.898740756  -3.613274799
  C   -0.042062151   4.682212459  -3.107549455
  N   -0.032785107   3.942433652  -6.671295907
  C    0.170603893   4.935592239  -7.646954766
  N    0.356150580   6.218276614  -7.383436657
  C    0.378659506   6.705840796  -6.057300339
  H    0.169317946   4.608270626  -8.710919771
  N    0.597600629   8.016156304  -5.873125981
  H    0.751074579   8.646463958  -6.662333503
  H    0.622381888   8.423475788  -4.937534304
  H   -0.097946940   4.415978667  -2.054620513
  P   -2.661567513  -1.882804008  -3.044933113
  O   -1.517392394  -3.036252416  -3.106638366
  C   -1.965190293  -4.404165897  -2.913775971
  H   -2.983397072  -4.585342445  -3.309622388
  H   -1.240437540  -4.975282924  -3.535819679
  C   -1.882543444  -4.751452273  -1.422318141
  H   -2.200731277  -3.900754948  -0.759349051
  O   -2.878933651  -5.786915177  -1.204504517
  C   -2.270846216  -7.013229538  -0.773648698
  H   -2.953396662  -7.394591852   0.026404766
  C   -0.521909704  -5.320891215  -0.945447423
  H    0.239178901  -5.411992445  -1.755609613
  C   -0.856444646  -6.678808220  -0.298607039
  H   -0.099582546  -7.449939820  -0.557510772
  H   -0.835380057  -6.613403587   0.811424214
  O   -0.096072832  -4.345060657   0.024596042
  O   -3.938754991  -1.737397769  -3.844701056
  O   -3.066881740  -1.998246456  -1.463796616
  N   -2.334116663  -7.971592422  -1.934176743
  C   -1.334540985  -7.993994472  -2.948786054
  N   -1.525074646  -8.928781697  -3.997141551
  C   -2.709529909  -9.711368295  -4.196050705
  C   -3.707805586  -9.588981965  -3.127654652
  C   -3.502502285  -8.759474542  -2.072744397
  O   -0.356864410  -7.265801436  -2.949770246
  H   -0.724609937  -9.052026489  -4.642745879
  O   -2.791347562 -10.355406234  -5.229183997
  C   -4.935192155 -10.423334069  -3.249589080
  H   -5.855124813  -9.852617525  -3.054770392
  H   -5.040808085 -10.862129299  -4.256729176
  H   -4.917939448 -11.273344981  -2.546143553
  H   -4.244779752  -8.663228002  -1.265441507
  P    1.426675368  -4.491980691   0.646631971
  O    1.818115326  -2.899194321   0.626483410
  C    3.057257486  -2.509740826  -0.003022261
  H    3.326955335  -1.608953105   0.595581495
  H    3.852877902  -3.277560739   0.118391032
  C    2.882292834  -2.145370982  -1.480393263
  H    3.427004790  -1.193249576  -1.709413891
  O    3.598172747  -3.176228086  -2.232006480
  C    2.917010959  -3.474821520  -3.462962601
  H    3.573556687  -3.098827283  -4.287182690
  C    1.454172263  -2.080019336  -2.059712784
  H    0.662514153  -2.460523144  -1.376451772
  C    1.531388948  -2.827067047  -3.397840359
  H    0.703573654  -3.546898961  -3.522763102
  H    1.413290134  -2.116051908  -4.253668073
  O    1.187756519  -0.683154751  -2.292760968
  O    2.306227593  -5.475173767   0.005585679
  O    1.094355737  -4.706563660   2.222957126
  N    2.837720254  -4.971531704  -3.587512303
  C    2.439810176  -5.506027973  -4.876480632
  N    2.328044787  -6.873687730  -5.032904171
  C    2.573026289  -7.711828257  -3.968616756
  C    3.037418561  -7.192549491  -2.712815075
  C    3.169837298  -5.837756687  -2.547622146
  O    2.199515344  -4.727352806  -5.798436561
  N    2.341400066  -9.042067541  -4.179506451
  H    2.570267632  -9.735415172  -3.484377877
  H    2.006836169  -9.375885388  -5.081994623
  H   -0.418597404  -1.899302658  -5.380046579
  H    3.538872171  -5.381993744  -1.604732266
  H    3.270532546  -7.859989816  -1.882317132
  H    0.284988784  -0.614862250  -2.687042822
  H   -5.286711525  -2.348644466  -5.067039116
  H   -3.965412283  -1.691058827  -1.170611839
  H    0.728529980  -3.929248652   2.735182982
  H    1.991511984  -7.080002578  -6.880550851
  H   -0.156443933   2.938276531  -6.876314643

