%mem=64gb
%nproc=28       
%Chk=snap_101.chk
# opt b3lyp/6-31g(d,p)  scf=(xqc, tight)  pop=min    

tetra snap_101 

2     1 
  O    2.711161164  -4.706782931  -7.730145424
  C    2.322042291  -3.463342315  -8.322158186
  H    2.835792505  -3.503779970  -9.311597776
  H    2.736003667  -2.630910225  -7.720463362
  C    0.815317302  -3.290347939  -8.517725420
  H    0.601457732  -2.271333025  -8.932528530
  O    0.388174161  -4.207108004  -9.583380777
  C   -0.792365968  -4.907079589  -9.213135911
  H   -1.435755416  -4.963774546 -10.123106750
  C   -0.119867861  -3.568013816  -7.311983564
  H    0.346425574  -4.212002136  -6.530549005
  C   -1.354462721  -4.217296297  -7.967335980
  H   -2.111688514  -3.449457169  -8.235481670
  H   -1.903990509  -4.902535861  -7.285504384
  O   -0.400693044  -2.266120875  -6.777597140
  N   -0.371593045  -6.317221869  -8.851549946
  C   -1.252815247  -7.396214291  -8.610710562
  C   -0.525530942  -8.349953573  -7.840351537
  N    0.775608849  -7.852430736  -7.649670571
  C    0.850555384  -6.631313210  -8.229210244
  N   -2.541650823  -7.556444872  -9.042586245
  C   -3.155717168  -8.691660642  -8.583228711
  N   -2.525037345  -9.654360360  -7.755002136
  C   -1.159148404  -9.512700142  -7.278852009
  N   -4.480229420  -8.877448352  -8.918610607
  H   -4.903065405  -8.231452638  -9.583791895
  H   -4.939213417  -9.771261915  -8.814779616
  O   -0.727510228 -10.335428991  -6.501670006
  H    1.757791887  -5.925586855  -8.255616220
  H   -3.056473347 -10.452997763  -7.384646852
  P   -1.145175919  -2.183986428  -5.293957400
  O   -1.911353606  -0.743186941  -5.583309961
  C   -1.258853907   0.433372866  -5.079358325
  H   -1.508326475   1.197367990  -5.845647881
  H   -0.158343513   0.328380614  -5.018852159
  C   -1.874676612   0.782666227  -3.712482245
  H   -1.290310789   0.367597498  -2.851593194
  O   -1.729769880   2.224018065  -3.514482691
  C   -2.996936409   2.883777748  -3.564652553
  H   -2.960652686   3.648984358  -2.746568782
  C   -3.393666771   0.468417026  -3.651989631
  H   -3.757899004  -0.081229647  -4.556947547
  C   -4.088255589   1.827895568  -3.446944446
  H   -4.545361699   1.834939130  -2.421900097
  H   -4.947529885   1.957827249  -4.126955597
  O   -3.771532287  -0.278775343  -2.484939346
  O   -0.154190592  -2.179175317  -4.193356149
  O   -2.253695518  -3.340295146  -5.560839933
  N   -3.005444946   3.608164959  -4.885060668
  C   -1.878572370   4.150359646  -5.496046217
  C   -2.321688015   4.786516105  -6.700251044
  N   -3.708889596   4.628249038  -6.826064722
  C   -4.107367791   3.935351995  -5.758051325
  N   -0.535044804   4.153355185  -5.120480686
  C    0.341563094   4.847400471  -5.973643951
  N   -0.021847427   5.453335822  -7.092639821
  C   -1.366190445   5.464086053  -7.525176691
  H    1.414525171   4.882783582  -5.678992827
  N   -1.660225156   6.103549152  -8.667284717
  H   -0.941829353   6.580043492  -9.214293104
  H   -2.620543454   6.155331039  -9.009406485
  H   -5.129676206   3.647046320  -5.525500802
  P   -3.035491687  -1.739398676  -2.231271812
  O   -1.848241187  -1.112450015  -1.298395842
  C   -0.693679505  -1.965917013  -1.078868922
  H   -0.290169581  -2.321666737  -2.058701924
  H    0.043489814  -1.285937190  -0.599256475
  C   -1.173344088  -3.070930711  -0.149298612
  H   -1.475472383  -2.691883448   0.857652975
  O   -2.422148990  -3.517118538  -0.785342937
  C   -2.433618057  -4.971650607  -0.947254822
  H   -3.433006128  -5.261914151  -0.535495013
  C   -0.275667687  -4.316832571  -0.031318300
  H    0.528296644  -4.335256394  -0.826081649
  C   -1.245760630  -5.505220004  -0.152517526
  H   -0.758159086  -6.393850831  -0.603575958
  H   -1.556316076  -5.847221360   0.861011476
  O    0.259306458  -4.266958122   1.298568197
  O   -2.594722431  -2.381192183  -3.508721456
  O   -4.288906007  -2.435561600  -1.475474470
  N   -2.398998857  -5.282212458  -2.400920406
  C   -1.171047106  -5.495438044  -3.114559814
  N   -1.299550379  -6.010613519  -4.421542951
  C   -2.541998496  -6.253273369  -5.091143807
  C   -3.737632801  -5.817119879  -4.350187095
  C   -3.642729486  -5.367071465  -3.075925526
  O   -0.076143248  -5.288548892  -2.623198815
  H   -0.414372192  -6.239205033  -4.923155267
  O   -2.489903358  -6.762237111  -6.192223162
  C   -5.025588647  -5.892555050  -5.090578997
  H   -5.060673269  -5.144766159  -5.900674386
  H   -5.153565115  -6.878436189  -5.569455050
  H   -5.905447998  -5.730426767  -4.453990703
  H   -4.523812699  -5.037935734  -2.503530174
  P    1.814932004  -4.817199568   1.432683283
  O    2.514215307  -3.817358211   0.330191298
  C    3.647743966  -4.369513843  -0.388626350
  H    4.555084707  -4.144501198   0.211569485
  H    3.554417672  -5.466759066  -0.533626234
  C    3.678628124  -3.626542057  -1.732913737
  H    4.340979644  -2.729698847  -1.704246608
  O    4.334696955  -4.557872879  -2.662337558
  C    3.581401090  -4.720059109  -3.867770018
  H    4.329499286  -4.616999857  -4.691328352
  C    2.312915093  -3.289191846  -2.367481654
  H    1.464477204  -3.815721109  -1.855618751
  C    2.445267602  -3.705417632  -3.840974327
  H    1.467773421  -4.085570477  -4.215966862
  H    2.669162277  -2.829028994  -4.480270971
  O    2.107586908  -1.879733677  -2.258176154
  O    2.039687819  -6.253933660   1.234572888
  O    2.195694636  -4.137191689   2.856153650
  N    3.066084377  -6.148365732  -3.901035158
  C    2.036687077  -6.518691642  -4.839981943
  N    1.618418159  -7.823471801  -4.921458041
  C    2.101564558  -8.769059061  -4.043003843
  C    3.092506874  -8.406646683  -3.064587143
  C    3.555978424  -7.116423106  -3.024974707
  O    1.535355672  -5.653525645  -5.575705873
  N    1.590983600 -10.021761207  -4.195747219
  H    1.866167136 -10.792172333  -3.605025925
  H    0.877509072 -10.208497582  -4.906241011
  H    2.450036902  -4.759523802  -6.761313006
  H    4.335891791  -6.789943875  -2.314437901
  H    3.475037748  -9.149035796  -2.363399100
  H    1.372150404  -1.617351607  -2.881337109
  H   -2.860239107  -3.564625019  -4.754878088
  H   -4.231453341  -2.535059620  -0.471836780
  H    2.187337592  -4.714869834   3.673546635
  H    1.429497561  -8.247766029  -6.966665728
  H   -0.240419207   3.649844447  -4.268883834

