%mem=64gb
%nproc=28       
%Chk=snap_20.chk
# opt b3lyp/6-31g(d,p)  scf=(xqc, tight)  pop=min    

tetra snap_20 

2     1 
  O    2.580148172  -3.969210424  -7.728339599
  C    2.521918774  -2.581150766  -8.061933443
  H    3.450544424  -2.423536287  -8.650536008
  H    2.568739066  -1.979268554  -7.129024435
  C    1.278914960  -2.215559721  -8.875736257
  H    1.255433765  -1.126026028  -9.116222466
  O    1.366265195  -2.869202998 -10.195132202
  C    0.194184609  -3.623442838 -10.455349393
  H    0.007705626  -3.567647152 -11.552820966
  C   -0.072366575  -2.689515849  -8.276700872
  H    0.072087869  -3.556878423  -7.581468940
  C   -0.891280765  -3.119494056  -9.505141390
  H   -1.437880180  -2.250446590  -9.932623026
  H   -1.683171916  -3.854325041  -9.262450386
  O   -0.702671025  -1.565684032  -7.657877132
  N    0.548411635  -5.068162640 -10.119251560
  C   -0.345633031  -6.154007083 -10.024541891
  C    0.398905989  -7.259776245  -9.526337109
  N    1.717759197  -6.824793014  -9.304718755
  C    1.795701296  -5.510872751  -9.650386854
  N   -1.669697693  -6.180084878 -10.375968320
  C   -2.284668407  -7.393859949 -10.201415743
  N   -1.625785519  -8.534882367  -9.694584504
  C   -0.215142851  -8.549211878  -9.304877149
  N   -3.629216776  -7.468188726 -10.489226229
  H   -4.081421988  -6.668094364 -10.930161991
  H   -4.110243753  -8.353161828 -10.570705128
  O    0.238517983  -9.576470026  -8.877220751
  H    2.679877381  -4.850206016  -9.562725951
  H   -2.131852095  -9.423962876  -9.565956175
  P   -0.872726287  -1.747562545  -6.006595976
  O   -1.418252344  -0.200970474  -5.788968636
  C   -0.682705870   0.585088422  -4.821429674
  H   -0.299413508   1.460070437  -5.392111572
  H    0.181585396   0.035573791  -4.384452782
  C   -1.680116611   1.029793933  -3.746285850
  H   -1.253541631   0.942683209  -2.713544022
  O   -1.868716515   2.474630990  -3.890691377
  C   -3.234613776   2.797064666  -4.101003608
  H   -3.424466465   3.698035697  -3.475006687
  C   -3.090256128   0.382829752  -3.863899350
  H   -3.243297177  -0.199236568  -4.806927621
  C   -4.071338521   1.562418701  -3.762814125
  H   -4.471108137   1.612456784  -2.720908302
  H   -4.964481258   1.425390207  -4.400151667
  O   -3.374962004  -0.471314333  -2.752320245
  O    0.392577366  -2.154328559  -5.365974926
  O   -2.170920480  -2.726952250  -6.074198395
  N   -3.367354550   3.172950058  -5.553219763
  C   -3.676428431   4.423057410  -6.082524918
  C   -3.623694160   4.292703453  -7.509488052
  N   -3.252161639   2.982826902  -7.847733442
  C   -3.090967622   2.331492865  -6.696900962
  N   -4.014416587   5.641319158  -5.489765671
  C   -4.290850233   6.710066653  -6.368484574
  N   -4.261827765   6.625819090  -7.686091817
  C   -3.927449275   5.418660005  -8.338059252
  H   -4.556197003   7.686808269  -5.902745650
  N   -3.918596094   5.404693221  -9.680276967
  H   -4.145547473   6.238726251 -10.223416116
  H   -3.679189900   4.556116410 -10.193635502
  H   -2.772825836   1.288475120  -6.582633914
  P   -2.387104379  -1.804456403  -2.591056606
  O   -1.478754055  -1.046430466  -1.465910254
  C   -0.284679256  -1.691206033  -0.961058669
  H    0.412304687  -1.929019693  -1.798191438
  H    0.158650856  -0.908995608  -0.311088397
  C   -0.760868589  -2.918638232  -0.189416537
  H   -1.356117215  -2.672716522   0.722662439
  O   -1.729561007  -3.517175315  -1.117006744
  C   -1.339571220  -4.883502540  -1.480151394
  H   -2.296361236  -5.453989983  -1.375699570
  C    0.315009514  -3.983811752   0.097729325
  H    1.320588137  -3.706592258  -0.314248353
  C   -0.243417478  -5.284065998  -0.499028763
  H    0.580477653  -5.876403813  -0.966826249
  H   -0.644924767  -5.947073144   0.301207183
  O    0.356853865  -4.076530747   1.539505564
  O   -1.708020165  -2.187342818  -3.869004404
  O   -3.583623762  -2.820103481  -2.180182633
  N   -0.916507458  -4.869419173  -2.904151186
  C    0.390230238  -4.406816169  -3.278380235
  N    0.779670331  -4.638762023  -4.613420302
  C   -0.047990268  -5.245832448  -5.594665005
  C   -1.381130732  -5.651959074  -5.151366824
  C   -1.761293837  -5.485611831  -3.858057858
  O    1.136863951  -3.864998705  -2.481055458
  H    1.665978502  -4.193421999  -4.910401258
  O    0.408653561  -5.330380966  -6.734496492
  C   -2.267686993  -6.242827634  -6.193027504
  H   -1.677656027  -6.793729483  -6.944382396
  H   -2.991172527  -6.956287139  -5.775688867
  H   -2.823936252  -5.456249610  -6.727382938
  H   -2.741024040  -5.817749572  -3.486771812
  P    1.717224610  -4.735685441   2.181034374
  O    1.752037379  -6.162205266   1.356032285
  C    2.798668141  -7.090494508   1.749383938
  H    3.447763057  -6.692861412   2.555958908
  H    2.246156091  -7.971797855   2.143982650
  C    3.624990534  -7.479993503   0.518750372
  H    4.620160695  -7.878943400   0.838202042
  O    3.014261518  -8.639150450  -0.121286920
  C    2.384861948  -8.284388719  -1.360251708
  H    2.723098940  -9.054998201  -2.093725373
  C    3.761486258  -6.397769376  -0.583544936
  H    3.584927304  -5.356053751  -0.219847396
  C    2.785235681  -6.839808348  -1.686222467
  H    1.906637184  -6.154088501  -1.715949777
  H    3.229749902  -6.747623516  -2.696336513
  O    5.101025030  -6.319663602  -1.038241902
  O    1.832096061  -4.726336153   3.632161930
  O    2.895540868  -3.942028225   1.332801263
  N    0.894334142  -8.443787654  -1.170612588
  C   -0.008852562  -8.025867821  -2.262263815
  N   -1.372062884  -8.067681725  -2.016445480
  C   -1.846433531  -8.575833165  -0.842684776
  C   -0.976617400  -9.055598760   0.191073992
  C    0.381986443  -8.976595344  -0.002239389
  O    0.513088063  -7.617139495  -3.281285178
  N   -3.217471087  -8.517282687  -0.657634934
  H   -3.641090199  -9.057720671   0.084260883
  H   -3.812057684  -8.344921950  -1.459339945
  H    1.822705104  -4.216626751  -7.120360071
  H    1.104544662  -9.327364717   0.754546071
  H   -1.378084448  -9.477459947   1.109799338
  H    5.409363281  -7.155269352  -1.453025957
  H   -2.430767860  -3.163007489  -5.179379076
  H   -3.733097222  -3.015598962  -1.203471139
  H    3.585903700  -3.437061369   1.833523372
  H    2.448444119  -7.403521327  -8.899575741
  H   -4.022448716   5.760772723  -4.474384665

