%mem=64gb
%nproc=28       
%Chk=snap_90.chk
# opt b3lyp/6-31g(d,p)  scf=(xqc, tight)  pop=min    

tetra snap_90 

2     1 
  O    2.719139475  -4.631208973  -7.681055734
  C    2.317220680  -3.445067671  -8.375397033
  H    2.859237737  -3.545687574  -9.345404107
  H    2.690086164  -2.558442625  -7.828284793
  C    0.813997928  -3.329444857  -8.629685075
  H    0.581964946  -2.340935664  -9.104183101
  O    0.457282210  -4.314306643  -9.660776015
  C   -0.715544575  -5.029782268  -9.297643080
  H   -1.313954336  -5.168076138 -10.228990477
  C   -0.156605157  -3.578401261  -7.446332108
  H    0.300478127  -4.178927296  -6.624216330
  C   -1.351175505  -4.278751606  -8.124706587
  H   -2.094105558  -3.529162240  -8.475486530
  H   -1.936157633  -4.925288270  -7.437195889
  O   -0.508534014  -2.269212372  -6.978207972
  N   -0.273033111  -6.397842636  -8.820453795
  C   -1.125317437  -7.510986897  -8.640719648
  C   -0.470584934  -8.377966144  -7.716484811
  N    0.765941927  -7.798678492  -7.380210268
  C    0.867102522  -6.613417256  -8.022841441
  N   -2.322054800  -7.773402387  -9.249191330
  C   -2.923051763  -8.936666772  -8.843145719
  N   -2.378889949  -9.808300638  -7.864697671
  C   -1.113235366  -9.554402126  -7.199105130
  N   -4.139616601  -9.253102285  -9.402344143
  H   -4.501222239  -8.667906873 -10.153924322
  H   -4.566490090 -10.161214912  -9.291447577
  O   -0.762105958 -10.312313940  -6.320639726
  H    1.753600438  -5.869965167  -7.986593588
  H   -2.907372851 -10.629986525  -7.540819193
  P   -1.185005089  -2.198889904  -5.456814595
  O   -1.956537194  -0.750754008  -5.703065873
  C   -1.264962254   0.431634822  -5.280320951
  H   -1.556826267   1.176228527  -6.051534078
  H   -0.164161926   0.316141297  -5.283074344
  C   -1.795739692   0.831021091  -3.891575572
  H   -1.139838794   0.479273220  -3.054616203
  O   -1.689776559   2.287689969  -3.788314249
  C   -2.971696120   2.898871525  -3.605557087
  H   -2.860122922   3.553778499  -2.701865750
  C   -3.289817291   0.466991110  -3.694772433
  H   -3.702475260  -0.144181954  -4.538273107
  C   -4.028639952   1.803898569  -3.507692856
  H   -4.520816571   1.800772073  -2.501399304
  H   -4.860483254   1.900607358  -4.229979697
  O   -3.517856379  -0.222937219  -2.456560536
  O   -0.148619421  -2.257853084  -4.406137141
  O   -2.349062796  -3.307003141  -5.701993312
  N   -3.167524319   3.796474243  -4.797915359
  C   -2.168424703   4.300852789  -5.621158534
  C   -2.798108885   5.205323739  -6.538234225
  N   -4.172662160   5.257461506  -6.269187050
  C   -4.386441192   4.434555330  -5.242134416
  N   -0.793112462   4.071033312  -5.654124263
  C   -0.069411716   4.795861895  -6.617600183
  N   -0.606841832   5.637989583  -7.485474021
  C   -1.995074946   5.900789775  -7.498443974
  H    1.031425033   4.638555233  -6.648464564
  N   -2.465751035   6.779698386  -8.396345407
  H   -1.845437739   7.258052957  -9.051252489
  H   -3.460584104   7.006481687  -8.441356297
  H   -5.341050321   4.247755063  -4.756254203
  P   -2.848406988  -1.730877449  -2.285165417
  O   -1.570065364  -1.195041590  -1.423598246
  C   -0.440234258  -2.105890972  -1.327439047
  H   -0.144973804  -2.464984341  -2.346196414
  H    0.369920012  -1.458384752  -0.924685210
  C   -0.893228310  -3.197694805  -0.363094564
  H   -1.086057962  -2.815689094   0.667507883
  O   -2.221768408  -3.548175692  -0.896384796
  C   -2.340680392  -4.987354094  -1.109742396
  H   -3.340202981  -5.225510538  -0.667906106
  C   -0.083560365  -4.508607742  -0.334841503
  H    0.656159279  -4.562514951  -1.188350361
  C   -1.150730511  -5.618205264  -0.390593063
  H   -0.770230812  -6.542446449  -0.876309014
  H   -1.434360578  -5.947743042   0.634490791
  O    0.641458281  -4.498886078   0.905899865
  O   -2.565864362  -2.367302920  -3.608917791
  O   -4.077301247  -2.370046342  -1.439859816
  N   -2.379438928  -5.258608051  -2.572881397
  C   -1.181186466  -5.471461845  -3.332458630
  N   -1.351807183  -5.987377177  -4.634060586
  C   -2.613892935  -6.215144153  -5.267988270
  C   -3.781152325  -5.773452040  -4.485275502
  C   -3.643984712  -5.335254798  -3.209050621
  O   -0.068023484  -5.270811107  -2.881831127
  H   -0.477269338  -6.247389752  -5.131354041
  O   -2.599016705  -6.719779813  -6.372833933
  C   -5.096811749  -5.831185734  -5.179323660
  H   -5.820516953  -6.468187805  -4.648146751
  H   -5.547963513  -4.833449015  -5.291243300
  H   -5.000398119  -6.247374282  -6.199135319
  H   -4.506381895  -5.011418480  -2.607242590
  P    1.784431387  -5.702625900   1.026773031
  O    2.779571431  -5.405488198  -0.242442652
  C    3.876700778  -4.463999455  -0.093119233
  H    3.711857202  -3.758286733   0.749397562
  H    4.777529455  -5.085578013   0.107166121
  C    4.010320088  -3.710416107  -1.420610094
  H    4.806595397  -2.932269974  -1.325231616
  O    4.529582411  -4.607432936  -2.447931810
  C    3.656441947  -4.663277400  -3.582778780
  H    4.338943828  -4.647659541  -4.466756445
  C    2.681619164  -3.136473350  -1.979129784
  H    1.799707219  -3.566667048  -1.443974629
  C    2.665801466  -3.504163635  -3.466370263
  H    1.630055575  -3.764990510  -3.813704864
  H    2.936325373  -2.653902787  -4.116725240
  O    2.559003958  -1.751093919  -1.714549573
  O    1.261536092  -7.066313289   1.041818942
  O    2.631016467  -5.099550275   2.282877641
  N    2.958699290  -6.005562623  -3.566214940
  C    2.015437284  -6.318319194  -4.611967261
  N    1.465836129  -7.581709472  -4.668862613
  C    1.653542435  -8.469434216  -3.630802155
  C    2.480607578  -8.114722634  -2.511440335
  C    3.131181226  -6.907370354  -2.516782163
  O    1.716704303  -5.456616695  -5.446724820
  N    1.009774332  -9.665583073  -3.746652681
  H    1.118102361 -10.395523764  -3.057351921
  H    0.444972113  -9.882548221  -4.571825474
  H    2.521346204  -4.577653639  -6.696241318
  H    3.821038041  -6.602765622  -1.707691243
  H    2.592996436  -8.791687561  -1.662787575
  H    3.191019347  -1.210917652  -2.236130381
  H   -2.935468992  -3.518602316  -4.882945774
  H   -3.954719448  -2.472149399  -0.444104627
  H    2.409123136  -5.406770245   3.206517091
  H    1.348711445  -8.128670251  -6.596806568
  H   -0.371863539   3.431206427  -4.961227358

