%mem=64gb
%nproc=28       
%Chk=snap_164.chk
# opt b3lyp/6-31g(d,p)  scf=(xqc, tight)  pop=min    

tetra snap_164 

2     1 
  O    1.279093995  -1.694708847  -5.469005677
  C    1.091631046  -2.968088242  -6.076305733
  H    0.978184869  -3.758008411  -5.310124692
  H    2.043095038  -3.133298862  -6.628927557
  C   -0.086314925  -2.881685752  -7.059804945
  H   -0.222414361  -1.829448362  -7.401881112
  O    0.321246421  -3.595946844  -8.278665044
  C   -0.675892362  -4.510084348  -8.706015707
  H   -0.757283198  -4.419964992  -9.815867179
  C   -1.429503849  -3.523705450  -6.621287462
  H   -1.325217570  -4.198874952  -5.746988926
  C   -1.937022805  -4.247887414  -7.879008383
  H   -2.655859230  -3.596696441  -8.428219957
  H   -2.528586634  -5.160936015  -7.652654021
  O   -2.410619706  -2.499384507  -6.365607633
  N   -0.135551648  -5.891453521  -8.399760333
  C   -0.827719114  -7.101820329  -8.631487919
  C   -0.180216123  -8.093272177  -7.835337129
  N    0.904932872  -7.491806117  -7.185050479
  C    0.909534092  -6.173487809  -7.497014363
  N   -1.898789148  -7.321210117  -9.448557688
  C   -2.405763388  -8.599238074  -9.389118001
  N   -1.869853789  -9.622931827  -8.566257328
  C   -0.739190018  -9.411935091  -7.681926153
  N   -3.494864294  -8.881720277 -10.170978924
  H   -3.866562277  -8.164626786 -10.790871850
  H   -3.909830675  -9.799935590 -10.228208242
  O   -0.412224896 -10.299262954  -6.926233668
  H    1.636003871  -5.431229328  -7.126970790
  H   -2.334626394 -10.539465985  -8.499389020
  P   -2.488795950  -1.896488926  -4.832182210
  O   -3.121685536  -0.428937016  -5.202187037
  C   -2.297327834   0.406451687  -6.046752929
  H   -2.975219787   1.269995941  -6.224281501
  H   -2.103450265  -0.087500508  -7.020176811
  C   -1.006009845   0.835710291  -5.333033130
  H   -0.144999098   0.126025173  -5.483882900
  O   -0.550245217   2.065699204  -5.980232144
  C   -0.555285108   3.158664331  -5.060409936
  H    0.361332770   3.755057659  -5.298726417
  C   -1.211080511   1.172454776  -3.830550710
  H   -2.286849016   1.114494065  -3.525310905
  C   -0.624848753   2.584686994  -3.652154184
  H    0.403187089   2.493117253  -3.212979899
  H   -1.169904319   3.192482879  -2.910143181
  O   -0.366000619   0.290716595  -3.075568367
  O   -1.082373224  -1.901052635  -4.243531798
  O   -3.601364620  -2.824330581  -4.127091020
  N   -1.759304086   3.981638250  -5.430132826
  C   -2.005978553   4.489149318  -6.703771077
  C   -3.249616609   5.195555794  -6.638013049
  N   -3.775812529   5.093194010  -5.342547808
  C   -2.902970320   4.371389731  -4.639238865
  N   -1.276577716   4.412212904  -7.890106847
  C   -1.816933102   5.101161456  -8.994098993
  N   -2.950269493   5.781333706  -8.972925803
  C   -3.739055661   5.867851380  -7.804101767
  H   -1.234802606   5.068105506  -9.943139717
  N   -4.883635876   6.564532386  -7.858059679
  H   -5.181909712   7.038085815  -8.711846798
  H   -5.484368260   6.653872308  -7.036947274
  H   -2.997544643   4.097714790  -3.591270026
  P   -1.182114460  -0.859629499  -2.207874448
  O    0.000691121  -1.909053331  -1.835050738
  C   -0.242222799  -3.318836790  -2.031550581
  H   -0.744664246  -3.526890991  -2.997636908
  H    0.805954855  -3.709249702  -2.100379282
  C   -1.003391259  -3.895044276  -0.838115712
  H   -1.045388936  -3.203027687   0.037763091
  O   -2.398378905  -4.058192694  -1.241699070
  C   -2.748473105  -5.441146254  -1.318997314
  H   -3.806906510  -5.483490039  -0.964762339
  C   -0.497600652  -5.302536708  -0.419876742
  H    0.313138243  -5.690363118  -1.088842389
  C   -1.739893089  -6.209206902  -0.462448144
  H   -1.501777518  -7.222155545  -0.840293218
  H   -2.130528328  -6.365483479   0.568154658
  O   -0.061138348  -5.171850858   0.949590829
  O   -2.576818818  -1.185419642  -2.683363304
  O   -1.282679711  -0.085858702  -0.772230925
  N   -2.718810153  -5.840007068  -2.776833424
  C   -1.501827923  -6.172619199  -3.435557592
  N   -1.604647712  -6.659778210  -4.760263714
  C   -2.829094194  -6.741546825  -5.501074536
  C   -4.001870119  -6.202977123  -4.806345861
  C   -3.925580596  -5.794216381  -3.514240518
  O   -0.400320400  -6.046741972  -2.926482242
  H   -0.729594418  -7.030642797  -5.164165773
  O   -2.759255763  -7.196207538  -6.627488666
  C   -5.266377059  -6.122768415  -5.587867663
  H   -5.614544725  -5.082058451  -5.690799139
  H   -5.146220750  -6.522838177  -6.608723042
  H   -6.077486712  -6.700633211  -5.117693797
  H   -4.803649125  -5.400973674  -2.980558156
  P    1.430497020  -5.806102253   1.236732276
  O    2.370387210  -4.619412974   0.611770196
  C    3.804854862  -4.865676972   0.692537662
  H    4.153076578  -4.250206912   1.552570690
  H    4.054278028  -5.934202669   0.865343216
  C    4.425437270  -4.381566651  -0.618850141
  H    5.491246549  -4.086890000  -0.445880506
  O    4.539290713  -5.515340292  -1.529451959
  C    3.855932723  -5.272767343  -2.765432235
  H    4.635299499  -5.371824238  -3.562787788
  C    3.627120912  -3.271232074  -1.351880672
  H    2.779282600  -2.875261027  -0.739088273
  C    3.187808717  -3.900175471  -2.683594658
  H    2.077277421  -3.975055992  -2.742093985
  H    3.447765575  -3.255905483  -3.549498560
  O    4.424552528  -2.115294398  -1.527833174
  O    1.684440236  -7.152166180   0.696932334
  O    1.578371969  -5.557209151   2.834846423
  N    2.873182655  -6.403730317  -2.960572303
  C    2.228716604  -6.527970593  -4.256249861
  N    1.581175639  -7.715963929  -4.563677942
  C    1.427875602  -8.693695751  -3.608254089
  C    1.949616340  -8.515767599  -2.285695102
  C    2.691911292  -7.397117562  -2.000861591
  O    2.284805822  -5.593370180  -5.050341023
  N    0.729032072  -9.806930263  -3.995118705
  H    0.670585408 -10.619476330  -3.397328756
  H    0.453785829  -9.940308801  -4.967927127
  H    0.634449628  -1.565187670  -4.715929656
  H    3.172097865  -7.248306451  -1.014805958
  H    1.764146732  -9.247951589  -1.497234422
  H    5.189887122  -2.267180261  -2.123667672
  H   -3.583594700  -2.758033454  -3.081278390
  H   -0.466264999  -0.026837047  -0.206470862
  H    1.168471702  -6.208972978   3.468037614
  H    1.453641164  -7.936856632  -6.406412986
  H   -0.438309862   3.822305628  -7.951005830

