%mem=64gb
%nproc=28       
%Chk=snap_37.chk
# opt b3lyp/6-31g(d,p)  scf=(xqc, tight)  pop=min    

tetra snap_37 

2     1 
  O    1.861379570  -3.819000718  -6.355221042
  C    2.162306093  -3.534533058  -7.715610920
  H    2.385240057  -4.528937432  -8.152234623
  H    3.079382239  -2.914802611  -7.767987431
  C    0.987473715  -2.855245209  -8.437769158
  H    1.163653097  -1.767978429  -8.611955073
  O    0.942858438  -3.423907060  -9.786945385
  C   -0.322630525  -3.997653842 -10.067586560
  H   -0.554832129  -3.722101492 -11.129180821
  C   -0.411162908  -3.098580562  -7.815187504
  H   -0.389511510  -3.869423603  -7.011434963
  C   -1.301969001  -3.543524057  -8.989316067
  H   -1.914505522  -2.678309716  -9.335090579
  H   -2.047110437  -4.302928411  -8.682723096
  O   -0.904526106  -1.835491440  -7.352753606
  N   -0.136113376  -5.501933676 -10.043547018
  C   -0.001627918  -6.320361352 -11.188764595
  C    0.205869176  -7.650210452 -10.721003497
  N    0.211096896  -7.615982709  -9.315792492
  C    0.014560342  -6.330700723  -8.920313178
  N   -0.073228137  -5.938239056 -12.495962012
  C    0.093163374  -6.960881307 -13.405555036
  N    0.297651188  -8.306046574 -13.027647144
  C    0.366179862  -8.755988387 -11.638418211
  N    0.049070067  -6.630658773 -14.733111582
  H   -0.078715136  -5.656783050 -15.003628773
  H    0.177045473  -7.301410371 -15.477563868
  O    0.536630671  -9.927572443 -11.431608208
  H   -0.056056345  -5.978713572  -7.856826004
  H    0.410024190  -9.042615260 -13.740937934
  P   -0.991541618  -1.693211709  -5.691338557
  O   -1.650029229  -0.175082075  -5.724712669
  C   -0.718347440   0.881018360  -5.383412685
  H   -0.743340736   1.571644466  -6.255739544
  H    0.324868736   0.515369234  -5.244988313
  C   -1.235268446   1.572049515  -4.117227215
  H   -0.437957618   1.682904138  -3.339434229
  O   -1.542305769   2.960011482  -4.478892660
  C   -2.892268101   3.282938328  -4.186179220
  H   -2.864290498   4.299252412  -3.732321578
  C   -2.538527044   0.968523843  -3.523886695
  H   -3.009819232   0.188715623  -4.173661279
  C   -3.467999318   2.174830397  -3.305588658
  H   -3.438916695   2.455515198  -2.223637753
  H   -4.528531416   1.935743592  -3.501371020
  O   -2.272166002   0.447205217  -2.220403494
  O    0.355479084  -1.834212814  -5.085567890
  O   -2.193519140  -2.767460499  -5.500051556
  N   -3.610420125   3.358840970  -5.509928360
  C   -4.188128786   4.475570740  -6.106860390
  C   -4.680885401   4.052321110  -7.385781746
  N   -4.384646722   2.694629799  -7.577313651
  C   -3.746543042   2.293615058  -6.478198909
  N   -4.358375554   5.794362443  -5.679769981
  C   -5.019184024   6.662443416  -6.574109543
  N   -5.486777505   6.309140074  -7.757900939
  C   -5.345987740   4.989001003  -8.238193917
  H   -5.152543230   7.718663750  -6.245467400
  N   -5.836746322   4.700218967  -9.453980030
  H   -6.302242791   5.408130402 -10.022732636
  H   -5.753741993   3.760833980  -9.843153059
  H   -3.343365740   1.293002824  -6.289044832
  P   -1.635967071  -1.090654982  -2.165619981
  O   -0.187260252  -0.580307781  -1.620945598
  C    0.886673262  -1.556863172  -1.546251635
  H    1.054254053  -2.035396923  -2.541988789
  H    1.764831305  -0.935169182  -1.279549812
  C    0.462693812  -2.523372306  -0.443772696
  H    0.293957139  -2.013616971   0.536802905
  O   -0.878948538  -2.926887268  -0.892008651
  C   -0.952559105  -4.370925888  -1.107669639
  H   -1.924581203  -4.648087125  -0.625381756
  C    1.292478064  -3.811243507  -0.259759440
  H    2.159268606  -3.881597446  -0.966004009
  C    0.284316526  -4.954080355  -0.431868675
  H    0.746792966  -5.784589835  -1.025763175
  H   -0.030347576  -5.432857291   0.534023047
  O    1.875771968  -3.680147334   1.050575458
  O   -1.676370576  -1.754944424  -3.507313103
  O   -2.720622624  -1.621783106  -1.083846824
  N   -1.030877774  -4.629685233  -2.570647486
  C    0.162597778  -4.624305168  -3.367596830
  N    0.026479735  -5.086265266  -4.695595921
  C   -1.168323036  -5.616272340  -5.256511413
  C   -2.322724451  -5.654362711  -4.356490378
  C   -2.220657983  -5.209195469  -3.076522860
  O    1.232485638  -4.229442334  -2.942257554
  H    0.889050508  -5.026720794  -5.290145533
  O   -1.122845983  -5.956666103  -6.435963747
  C   -3.585464831  -6.229135584  -4.898082835
  H   -4.362247587  -5.461952368  -5.030290211
  H   -3.428656404  -6.697688181  -5.884578014
  H   -3.989499114  -7.016681656  -4.241700672
  H   -3.062162859  -5.276464139  -2.370320369
  P    2.063824967  -5.003925685   2.014770935
  O    3.207418960  -5.809406606   1.148093465
  C    3.493877903  -7.162159241   1.600143607
  H    4.438202815  -7.075110029   2.180178449
  H    2.689531565  -7.574904266   2.246100386
  C    3.685045848  -8.045464146   0.361944906
  H    4.579495687  -8.703241640   0.489736081
  O    2.591157160  -9.005153697   0.294414331
  C    1.712994307  -8.740301580  -0.812254506
  H    1.607426807  -9.719777332  -1.339960534
  C    3.703018581  -7.294719449  -0.993894018
  H    3.897819254  -6.199518721  -0.888332237
  C    2.348335827  -7.621344649  -1.644500536
  H    1.705722376  -6.712141446  -1.698258323
  H    2.462091422  -7.916603299  -2.705929895
  O    4.799695201  -7.715023211  -1.786909948
  O    0.878841860  -5.791693443   2.370340622
  O    2.871893903  -4.291189962   3.228595551
  N    0.370189483  -8.377666107  -0.228972041
  C   -0.673841742  -7.802528407  -1.093426181
  N   -1.875826962  -7.443692413  -0.511258648
  C   -2.113954779  -7.726660673   0.806875568
  C   -1.131100487  -8.360676747   1.640230784
  C    0.094212997  -8.659877518   1.104372302
  O   -0.382869370  -7.611135852  -2.263391986
  N   -3.329946874  -7.327097615   1.311622264
  H   -3.609246667  -7.579861308   2.247398775
  H   -4.060511212  -7.013622227   0.688729358
  H    1.690830312  -2.974691304  -5.819399739
  H    0.894888659  -9.133889825   1.696708730
  H   -1.338317823  -8.569008902   2.688708062
  H    4.770948587  -8.674853997  -1.992082001
  H   -2.395704859  -3.041267459  -4.529054939
  H   -2.397631569  -1.944611568  -0.184575114
  H    3.573408241  -3.616985546   2.996565244
  H    0.326436182  -8.436910311  -8.726494215
  H   -3.996246897   6.119262523  -4.780470577

