%mem=64gb
%nproc=28       
%Chk=snap_54.chk
# opt b3lyp/6-31g(d,p)  scf=(xqc, tight)  pop=min    

tetra snap_54 

2     1 
  O    0.886976969  -4.449194492  -5.324966857
  C    1.330732494  -4.444816768  -6.678235561
  H    1.377609949  -5.524400288  -6.934712834
  H    2.357698818  -4.034822025  -6.721775284
  C    0.382670110  -3.658166887  -7.599430220
  H    0.745934116  -2.626688201  -7.810258825
  O    0.420751134  -4.312172261  -8.903873675
  C   -0.837885089  -4.908232567  -9.210097586
  H   -0.927955072  -4.865872891 -10.325055358
  C   -1.106283037  -3.655504749  -7.157752044
  H   -1.284956630  -4.312617077  -6.278666100
  C   -1.886533243  -4.167057894  -8.382461105
  H   -2.301342439  -3.300680587  -8.948821013
  H   -2.772805518  -4.769583051  -8.104985897
  O   -1.502461384  -2.297905385  -6.902705482
  N   -0.718966656  -6.362140428  -8.817499568
  C   -0.042216166  -7.339133220  -9.585992983
  C    0.216566859  -8.443078618  -8.718827920
  N   -0.272377298  -8.116292696  -7.444719970
  C   -0.817940352  -6.881252103  -7.505625366
  N    0.284550071  -7.272386247 -10.908871401
  C    0.928196062  -8.386560516 -11.400786070
  N    1.216614768  -9.522726968 -10.615421566
  C    0.876585944  -9.636230908  -9.194278732
  N    1.300620000  -8.364229546 -12.719346868
  H    1.094287814  -7.543506594 -13.285751857
  H    1.770559551  -9.133134666 -13.173929179
  O    1.167090999 -10.658362648  -8.634388127
  H   -1.342735463  -6.372840100  -6.662134585
  H    1.692355063 -10.340318617 -11.024222308
  P   -1.647402195  -1.923963227  -5.286855636
  O   -2.087598125  -0.341591515  -5.474870375
  C   -1.028252011   0.605689049  -5.202808103
  H   -1.064841210   1.306764131  -6.066097529
  H   -0.019559488   0.136482089  -5.173086450
  C   -1.344053754   1.330788316  -3.886399278
  H   -0.521039299   1.227051848  -3.135167504
  O   -1.331190492   2.764631510  -4.179852988
  C   -2.609953261   3.344621743  -3.970011905
  H   -2.412855780   4.334531563  -3.499168550
  C   -2.737923364   1.010822263  -3.277850714
  H   -3.336013014   0.286883918  -3.884974667
  C   -3.440438124   2.372244503  -3.134779986
  H   -3.435874929   2.662675599  -2.053724732
  H   -4.511680653   2.333506871  -3.402880790
  O   -2.590271093   0.525977068  -1.937854616
  O   -0.359531040  -2.156640429  -4.580550228
  O   -3.029430381  -2.735295114  -5.038573195
  N   -3.210260399   3.562736658  -5.332838271
  C   -3.260776437   4.754453035  -6.052366441
  C   -3.800238920   4.437101601  -7.342155855
  N   -4.044763588   3.058000570  -7.422781450
  C   -3.683817286   2.546427541  -6.247221231
  N   -2.924659768   6.068618128  -5.722822609
  C   -3.148858182   7.040818127  -6.721513640
  N   -3.646392476   6.788217995  -7.918355569
  C   -3.997349658   5.476265039  -8.306609766
  H   -2.885525598   8.093307846  -6.466632962
  N   -4.485255145   5.288274459  -9.542291545
  H   -4.606387712   6.065811157 -10.193195369
  H   -4.754948066   4.357662039  -9.864042559
  H   -3.715273940   1.492144236  -5.965798992
  P   -2.141461865  -1.067251084  -1.774385916
  O   -0.637299247  -0.699245786  -1.270017918
  C    0.337785966  -1.777102203  -1.204311356
  H    0.384820076  -2.326560031  -2.175942740
  H    1.288902242  -1.231977712  -1.036477197
  C   -0.095237620  -2.628694059  -0.011707822
  H   -0.053854113  -2.079134780   0.958628008
  O   -1.533332886  -2.806545945  -0.287592089
  C   -1.881847284  -4.218413704  -0.365377591
  H   -2.848459986  -4.272414689   0.192739218
  C    0.508173288  -4.040494349   0.113628048
  H    1.164472133  -4.299525949  -0.759554711
  C   -0.714345661  -4.970262577   0.265339989
  H   -0.538032417  -5.972035603  -0.181386519
  H   -0.914015587  -5.183699303   1.340139152
  O    1.306746622  -4.032773386   1.317410524
  O   -2.292343777  -1.823315784  -3.057826893
  O   -3.267709877  -1.429297331  -0.660506498
  N   -2.110115432  -4.586084164  -1.791193886
  C   -1.012769060  -4.771332824  -2.690114183
  N   -1.319627556  -5.276470969  -3.965689110
  C   -2.636016677  -5.560943037  -4.440264205
  C   -3.714640690  -5.241931996  -3.490121221
  C   -3.437789858  -4.778645970  -2.245205563
  O    0.144548055  -4.540844057  -2.382792188
  H   -0.479077704  -5.415289864  -4.598789779
  O   -2.732940167  -5.995285573  -5.576194988
  C   -5.100808673  -5.421435962  -3.998716340
  H   -5.875001365  -5.251871358  -3.239305106
  H   -5.302853285  -4.731100090  -4.837688858
  H   -5.253495512  -6.440354922  -4.395372305
  H   -4.230030231  -4.526449004  -1.526096706
  P    2.253981674  -5.389037411   1.430648592
  O    3.253547429  -5.138621268   0.159293353
  C    4.251790177  -6.180334868  -0.061471272
  H    5.157101724  -5.846935180   0.493835590
  H    3.914582988  -7.175487624   0.301762817
  C    4.518423461  -6.231753656  -1.567194077
  H    5.585555631  -6.514284062  -1.749654296
  O    3.766674276  -7.351549797  -2.120764521
  C    3.008278717  -6.946456081  -3.275638943
  H    3.459656007  -7.480679915  -4.150107320
  C    4.119619809  -4.958319682  -2.362325174
  H    3.796728380  -4.119035450  -1.700010142
  C    3.043818609  -5.419698327  -3.352384173
  H    2.050145614  -4.968464665  -3.119635580
  H    3.240596829  -5.059503551  -4.380930029
  O    5.253813422  -4.404096487  -3.009453971
  O    1.522512680  -6.666717646   1.405602513
  O    3.182947919  -5.027725686   2.710916186
  N    1.618685124  -7.485854946  -3.084103572
  C    0.841067431  -7.803968566  -4.278519071
  N   -0.442021197  -8.303138725  -4.125130083
  C   -0.955961373  -8.485248080  -2.872045441
  C   -0.195509391  -8.189800613  -1.691466805
  C    1.086965632  -7.710820570  -1.825474753
  O    1.338188913  -7.606033584  -5.379982177
  N   -2.277426462  -8.883608401  -2.798590386
  H   -2.632033793  -9.288464609  -1.943401885
  H   -2.740500453  -9.194180803  -3.647164715
  H    0.765817177  -3.506247959  -4.962102221
  H    1.728875287  -7.498745772  -0.950779446
  H   -0.599145706  -8.389982166  -0.700148302
  H    5.636329594  -5.005452770  -3.684272395
  H   -3.323689129  -2.833724620  -4.055179643
  H   -2.996658762  -1.422494156   0.308313479
  H    2.888816977  -5.320883973   3.619396730
  H   -0.103209074  -8.645356839  -6.574108203
  H   -2.500992982   6.305577957  -4.821746071

