%mem=64gb
%nproc=28       
%Chk=snap_22.chk
# opt b3lyp/6-31g(d,p)  scf=(xqc, tight)  pop=min    

tetra snap_22 

2     1 
  O    2.813152094  -4.241068833  -7.883522071
  C    2.784816814  -2.842114376  -8.176937519
  H    3.635790366  -2.719723577  -8.881424898
  H    2.996051879  -2.271236477  -7.247737629
  C    1.466421159  -2.378310875  -8.800626659
  H    1.495481376  -1.292438446  -9.062954668
  O    1.282320981  -3.050123597 -10.095267485
  C    0.042332293  -3.734593180 -10.142971107
  H   -0.361818525  -3.596006316 -11.175054615
  C    0.212839550  -2.725069669  -7.959260560
  H    0.458182438  -3.496820376  -7.193784959
  C   -0.814457872  -3.253094324  -8.974745451
  H   -1.505933966  -2.437931496  -9.282127022
  H   -1.477244366  -4.028077341  -8.537913154
  O   -0.247130075  -1.504960627  -7.377774561
  N    0.367172032  -5.213798219  -9.989284777
  C   -0.568440024  -6.267331896  -9.974186388
  C    0.159715162  -7.461431627  -9.712369425
  N    1.511704495  -7.112142560  -9.547532068
  C    1.624533574  -5.764563073  -9.704801550
  N   -1.919093434  -6.188747595 -10.194513924
  C   -2.577336240  -7.391080934 -10.138806792
  N   -1.933216023  -8.620771908  -9.884327837
  C   -0.496582822  -8.747555507  -9.636704599
  N   -3.947705357  -7.370020414 -10.278095433
  H   -4.398299453  -6.494160261 -10.539437841
  H   -4.480589669  -8.212728133 -10.446136602
  O   -0.058564063  -9.845004026  -9.419942970
  H    2.545769301  -5.149836286  -9.598310740
  H   -2.470902105  -9.500065113  -9.848496147
  P   -0.691653777  -1.635861407  -5.770403363
  O   -1.382464502  -0.129713249  -5.735904882
  C   -0.651657613   0.836609924  -4.942126481
  H   -0.415992451   1.665010305  -5.646663289
  H    0.303803703   0.433932953  -4.533497860
  C   -1.576561790   1.317133552  -3.819068057
  H   -1.070805090   1.301072450  -2.819269421
  O   -1.815395373   2.746630559  -4.037461847
  C   -3.200728746   3.025694010  -4.152577971
  H   -3.368432965   3.957107108  -3.565956866
  C   -2.971559783   0.632616755  -3.778918156
  H   -3.172728243  -0.033425169  -4.655163509
  C   -3.977453086   1.792791681  -3.689877681
  H   -4.314380131   1.895305589  -2.628897537
  H   -4.904592022   1.596026819  -4.258405462
  O   -3.130461804  -0.109335871  -2.565751870
  O    0.459988850  -1.890237137  -4.886348645
  O   -1.865127739  -2.742401338  -6.013788799
  N   -3.459638071   3.314915744  -5.608824980
  C   -3.870498755   4.514996749  -6.181052027
  C   -3.935627880   4.296486950  -7.597108140
  N   -3.537172859   2.983269364  -7.888175674
  C   -3.247359871   2.413399928  -6.718860918
  N   -4.212611299   5.753545529  -5.633934683
  C   -4.612839944   6.752080259  -6.546688937
  N   -4.690361813   6.586854497  -7.854724980
  C   -4.359908961   5.355187046  -8.460889285
  H   -4.886432432   7.744317819  -6.119496694
  N   -4.470687343   5.255157357  -9.794914754
  H   -4.777844539   6.043717273 -10.365468597
  H   -4.244822194   4.384231968 -10.275354196
  H   -2.876489280   1.393977073  -6.566266074
  P   -2.266827803  -1.529082904  -2.473491697
  O   -1.106076924  -0.858112050  -1.538062338
  C    0.068284510  -1.644002147  -1.213517611
  H    0.598318868  -1.955854191  -2.147060804
  H    0.695085790  -0.925088433  -0.648457247
  C   -0.441036851  -2.808158486  -0.366979290
  H   -0.970578770  -2.479047136   0.560092755
  O   -1.501092942  -3.365331420  -1.223461324
  C   -1.199734780  -4.739642362  -1.611311724
  H   -2.187675425  -5.253414136  -1.492733137
  C    0.547677493  -3.951361138  -0.063874702
  H    1.572762669  -3.753577493  -0.468690313
  C   -0.108678808  -5.206679581  -0.656162642
  H    0.672560178  -5.825640946  -1.160525158
  H   -0.556145974  -5.883067705   0.119399971
  O    0.662691550  -3.973786298   1.370765530
  O   -1.858684112  -2.028820222  -3.822221900
  O   -3.459207749  -2.348917577  -1.743302737
  N   -0.787258194  -4.774612106  -3.041626922
  C    0.558657459  -4.439690677  -3.414987327
  N    0.933960612  -4.738059245  -4.744065897
  C    0.099612833  -5.397314201  -5.688287465
  C   -1.250364752  -5.721879411  -5.228798211
  C   -1.638079726  -5.437667385  -3.958019017
  O    1.353392334  -3.954465204  -2.629841979
  H    1.894332421  -4.469113805  -5.011028560
  O    0.568288643  -5.561876868  -6.812325155
  C   -2.145286159  -6.404179360  -6.205521470
  H   -1.636835850  -6.568414990  -7.169550535
  H   -2.449572990  -7.397850444  -5.835613732
  H   -3.052397058  -5.818467314  -6.409337968
  H   -2.633094364  -5.711948481  -3.579070633
  P    1.175969998  -5.367088819   2.098867654
  O    2.728123547  -5.419218967   1.564727623
  C    3.433122945  -6.666499399   1.821083357
  H    4.296887334  -6.342976694   2.444998271
  H    2.823904298  -7.406541036   2.381875325
  C    3.915184082  -7.270748618   0.500288317
  H    4.889571245  -7.796157900   0.668793661
  O    3.018274489  -8.353702353   0.118783658
  C    2.475130398  -8.156661010  -1.199010749
  H    2.831584433  -9.025337247  -1.805341404
  C    3.997733292  -6.289227564  -0.696239864
  H    3.864720195  -5.222430709  -0.394796825
  C    2.943572046  -6.784127902  -1.696077537
  H    2.106080280  -6.055101995  -1.778046785
  H    3.342046753  -6.833225246  -2.729580237
  O    5.303483752  -6.280743564  -1.245874766
  O    0.403754316  -6.598033537   1.889525465
  O    1.254605143  -4.796628992   3.615385015
  N    0.977212402  -8.256231410  -1.082762934
  C    0.161630180  -7.981726842  -2.285247865
  N   -1.214048690  -8.049805803  -2.160760700
  C   -1.779964089  -8.427897147  -0.975821651
  C   -0.997818408  -8.717207491   0.185270323
  C    0.371556850  -8.612975813   0.114492029
  O    0.760001257  -7.638959591  -3.289317194
  N   -3.165419301  -8.408982879  -0.925588350
  H   -3.636514341  -8.874376221  -0.160979965
  H   -3.682631285  -8.384626751  -1.795883792
  H    2.061169034  -4.508500979  -7.280037954
  H    1.022522164  -8.791864673   0.988922887
  H   -1.468169326  -8.978810400   1.132646390
  H    5.566901469  -7.154533919  -1.608918545
  H   -2.225617196  -3.181335239  -5.159302629
  H   -3.307076946  -2.711427765  -0.815418702
  H    1.601092690  -3.868011396   3.751658979
  H    2.245864479  -7.774885697  -9.312819700
  H   -4.132979335   5.939169258  -4.631507481

