%mem=64gb
%nproc=28       
%Chk=snap_30.chk
# opt b3lyp/6-31g(d,p)  scf=(xqc, tight)  pop=min    

tetra snap_30 

2     1 
  O    2.225092561  -4.339626804  -7.713976830
  C    2.294659332  -2.949528095  -8.088713767
  H    3.183728487  -2.915295274  -8.755389811
  H    2.489412037  -2.355576067  -7.168828818
  C    1.045202322  -2.444914907  -8.808804427
  H    1.084577649  -1.333813500  -8.933619892
  O    1.068475790  -2.948347800 -10.187555754
  C   -0.153952706  -3.587475529 -10.521754630
  H   -0.391548680  -3.294358697 -11.574069678
  C   -0.320011462  -2.884453717  -8.214390684
  H   -0.227531131  -3.765206891  -7.530829794
  C   -1.178092930  -3.231226458  -9.441871816
  H   -1.790248745  -2.347818356  -9.733295162
  H   -1.915224451  -4.027664271  -9.232648116
  O   -0.916551466  -1.752325739  -7.572186682
  N    0.131822789  -5.073771757 -10.518074975
  C   -0.470356216  -6.040957163 -11.351114515
  C    0.068609799  -7.300680924 -10.966467854
  N    0.982376705  -7.074105493  -9.916008542
  C    1.012606994  -5.743915708  -9.658262499
  N   -1.393933829  -5.835213870 -12.338846249
  C   -1.793454687  -6.977979550 -12.992898958
  N   -1.304395298  -8.264752034 -12.679798344
  C   -0.329165223  -8.524223936 -11.620726949
  N   -2.737614645  -6.843952475 -13.979318787
  H   -3.062653601  -5.914961827 -14.236660782
  H   -3.028530355  -7.611131964 -14.568084486
  O    0.003674828  -9.664622632 -11.434531015
  H    1.658961960  -5.181319673  -8.847547705
  H   -1.633700092  -9.095043553 -13.195244242
  P   -0.796800538  -1.774867213  -5.906022536
  O   -1.284556026  -0.201415668  -5.762417924
  C   -0.380844802   0.662494014  -5.031590286
  H   -0.023638927   1.411408932  -5.773612146
  H    0.497247353   0.117053857  -4.615962509
  C   -1.203787874   1.330801210  -3.927753958
  H   -0.615105233   1.451040850  -2.983843562
  O   -1.452991291   2.716445162  -4.340874655
  C   -2.832439781   3.037630361  -4.260588652
  H   -2.879257082   4.035013272  -3.766085407
  C   -2.597716745   0.691978995  -3.669021323
  H   -2.924270842  -0.015615109  -4.471017415
  C   -3.552082425   1.892821076  -3.544356709
  H   -3.712825928   2.117250467  -2.462531519
  H   -4.559578897   1.669483024  -3.940306698
  O   -2.623831035   0.034123499  -2.401989217
  O    0.562578909  -2.147535502  -5.464276010
  O   -2.082314855  -2.732100386  -5.644884480
  N   -3.317220537   3.179557553  -5.680865229
  C   -4.060295702   4.222396288  -6.224717729
  C   -4.275259687   3.898712403  -7.605327747
  N   -3.650127550   2.679203215  -7.904451122
  C   -3.084530409   2.260929015  -6.772112186
  N   -4.585446988   5.395052717  -5.676470650
  C   -5.317403176   6.221961203  -6.553947725
  N   -5.545171019   5.952436172  -7.826935095
  C   -5.041602289   4.780069132  -8.431289390
  H   -5.732583822   7.164403698  -6.129002513
  N   -5.320014260   4.562777317  -9.726741726
  H   -5.874587694   5.223381125 -10.271821420
  H   -4.971868361   3.731866956 -10.205263749
  H   -2.497685295   1.343688925  -6.635634691
  P   -1.790354140  -1.407735213  -2.294901810
  O   -0.719551766  -0.744009667  -1.262931053
  C    0.422400810  -1.506546676  -0.801580980
  H    1.037924076  -1.844879450  -1.666889138
  H    0.983646977  -0.754507092  -0.209181775
  C   -0.136724447  -2.647549408   0.044194592
  H   -0.641372018  -2.302294453   0.978124189
  O   -1.224371996  -3.151525785  -0.802563173
  C   -1.033631772  -4.566221575  -1.121630364
  H   -2.029269433  -5.019198385  -0.880689078
  C    0.822142811  -3.825987572   0.324982967
  H    1.844113985  -3.668817673  -0.101891497
  C    0.116812446  -5.056689051  -0.251362132
  H    0.852071548  -5.678398689  -0.826675342
  H   -0.290088499  -5.748630632   0.533283983
  O    0.982673783  -3.826861548   1.755186530
  O   -1.300165680  -1.904794453  -3.619439737
  O   -3.056224487  -2.268887644  -1.751744079
  N   -0.777050190  -4.674606129  -2.580916452
  C    0.501670628  -4.310232813  -3.121942750
  N    0.703525430  -4.612906919  -4.485185091
  C   -0.241815455  -5.274469165  -5.315907670
  C   -1.493760437  -5.668175456  -4.675541770
  C   -1.709454197  -5.398119721  -3.361752890
  O    1.362896581  -3.771383260  -2.449611200
  H    1.552687036  -4.205052172  -4.919415488
  O    0.074233032  -5.408532054  -6.499626716
  C   -2.496930677  -6.388662714  -5.507612704
  H   -3.511501534  -5.986241330  -5.379298919
  H   -2.259188364  -6.324724402  -6.581246536
  H   -2.524192732  -7.461495073  -5.248610984
  H   -2.618861328  -5.735570246  -2.842164395
  P    1.308331679  -5.237948538   2.549364199
  O    2.817013602  -5.539871577   1.974195015
  C    3.375053672  -6.837080642   2.324541564
  H    4.261199119  -6.577390802   2.946138221
  H    2.677941401  -7.468782028   2.913885522
  C    3.797663895  -7.566205017   1.046410447
  H    4.725926185  -8.159431177   1.243611341
  O    2.814386236  -8.595055357   0.741530594
  C    2.209306929  -8.397072611  -0.547759173
  H    2.393346584  -9.347644035  -1.107177582
  C    3.943110063  -6.675611212  -0.213576792
  H    3.901097442  -5.584271064   0.020918599
  C    2.839844522  -7.147543660  -1.172803251
  H    2.094830550  -6.340012788  -1.358493018
  H    3.237983078  -7.356731851  -2.187098830
  O    5.238925161  -6.807081272  -0.770578474
  O    0.356791187  -6.349193748   2.440191508
  O    1.535448403  -4.607733993   4.027374161
  N    0.723756961  -8.277765971  -0.322613317
  C   -0.144813446  -7.882774369  -1.447969040
  N   -1.505864369  -7.789231531  -1.215806330
  C   -2.022448925  -8.140411704   0.001008826
  C   -1.191405138  -8.563041629   1.087399003
  C    0.170027602  -8.602611788   0.910432994
  O    0.405843801  -7.586366902  -2.494367794
  N   -3.385560952  -7.973457023   0.161341654
  H   -3.848167088  -8.374523237   0.965051256
  H   -3.968273916  -7.832216205  -0.653105720
  H    1.507921612  -4.471521226  -7.008355219
  H    0.862252602  -8.889320842   1.720669245
  H   -1.616540920  -8.798082784   2.062196743
  H    5.426300484  -7.719067623  -1.083773719
  H   -2.210183842  -3.043039973  -4.674049723
  H   -3.131755730  -2.444913453  -0.763437322
  H    2.045205313  -3.750444004   4.100520702
  H    1.507395671  -7.810059167  -9.453540066
  H   -4.417755348   5.655236329  -4.702283016

