%mem=64gb
%nproc=28       
%Chk=snap_29.chk
# opt b3lyp/6-31g(d,p)  scf=(xqc, tight)  pop=min    

tetra snap_29 

2     1 
  O    2.272646699  -4.302145823  -7.768174350
  C    2.299277034  -2.900177734  -8.099998480
  H    3.197952020  -2.819014009  -8.750698720
  H    2.456458446  -2.329616471  -7.156433525
  C    1.050537446  -2.407083885  -8.828744316
  H    1.098452266  -1.296589723  -8.963969068
  O    1.076393443  -2.927552943 -10.202404003
  C   -0.156522833  -3.544047923 -10.540090223
  H   -0.373147860  -3.267906687 -11.601075529
  C   -0.324523428  -2.825932323  -8.240374164
  H   -0.260941690  -3.716266815  -7.568412974
  C   -1.182650055  -3.139177427  -9.478400212
  H   -1.747923386  -2.230408171  -9.784481886
  H   -1.956360565  -3.902708910  -9.278478017
  O   -0.902891861  -1.691830968  -7.583207010
  N    0.087275065  -5.037671371 -10.496682868
  C   -0.579389278  -6.017306707 -11.262940516
  C   -0.084530260  -7.278718418 -10.827921766
  N    0.872266947  -7.040448448  -9.818771089
  C    0.966281587  -5.702208264  -9.631223490
  N   -1.515010634  -5.821046767 -12.241959718
  C   -1.975266611  -6.976302157 -12.829167576
  N   -1.551929120  -8.267556934 -12.444509577
  C   -0.557728707  -8.515282299 -11.400897349
  N   -2.914880174  -6.853589983 -13.821596000
  H   -3.190227190  -5.927775753 -14.140173838
  H   -3.249982768  -7.642046768 -14.355842634
  O   -0.274825343  -9.658183699 -11.156425650
  H    1.665831835  -5.122948247  -8.869767979
  H   -1.940820705  -9.107263678 -12.898939690
  P   -0.706988943  -1.695116940  -5.923390129
  O   -1.250559915  -0.144228065  -5.753888248
  C   -0.338881155   0.761306093  -5.083253337
  H   -0.024042799   1.494916505  -5.858232231
  H    0.565880143   0.248447894  -4.683486494
  C   -1.135552239   1.446564111  -3.970363191
  H   -0.525660724   1.579664328  -3.041494322
  O   -1.393362439   2.826784261  -4.400067176
  C   -2.770692379   3.150670527  -4.294819153
  H   -2.806440440   4.161510452  -3.828874731
  C   -2.525445364   0.816752546  -3.671204678
  H   -2.876278293   0.108160333  -4.461747313
  C   -3.468663305   2.024970584  -3.529396101
  H   -3.585661734   2.271282331  -2.447018437
  H   -4.493000438   1.801067051  -3.877660112
  O   -2.520430048   0.168118648  -2.400617934
  O    0.686282933  -2.011617294  -5.544573286
  O   -1.928934437  -2.716896993  -5.603951991
  N   -3.297415306   3.247749090  -5.704906671
  C   -4.019862012   4.288053896  -6.281288965
  C   -4.283115506   3.904649671  -7.638697061
  N   -3.708846986   2.650364487  -7.892055703
  C   -3.126151289   2.269985657  -6.755333497
  N   -4.487394483   5.506549072  -5.782877473
  C   -5.207425993   6.317839460  -6.684786031
  N   -5.476695724   5.994523171  -7.936840294
  C   -5.034907777   4.773434128  -8.490904731
  H   -5.573679396   7.296784353  -6.298800392
  N   -5.352554697   4.507727877  -9.768283736
  H   -5.889370540   5.167907974 -10.332064054
  H   -5.054213279   3.640291568 -10.213747206
  H   -2.566730986   1.340902605  -6.590393934
  P   -1.709759421  -1.288666979  -2.310098680
  O   -0.681941827  -0.665481411  -1.215094340
  C    0.434177944  -1.449960910  -0.727387465
  H    1.084600489  -1.770808103  -1.573787262
  H    0.976753621  -0.718515600  -0.091583599
  C   -0.173381147  -2.605893215   0.062025588
  H   -0.715663677  -2.277207685   0.981871678
  O   -1.224594623  -3.083518685  -0.845128531
  C   -1.035574669  -4.497563843  -1.173787268
  H   -2.033108892  -4.948926162  -0.941301802
  C    0.764302458  -3.794466280   0.365495636
  H    1.815726934  -3.618181060   0.028903716
  C    0.109994801  -5.004028679  -0.305800976
  H    0.876255851  -5.570550704  -0.900688879
  H   -0.293571841  -5.758567039   0.421747724
  O    0.797341862  -3.845810289   1.807188774
  O   -1.172481239  -1.762196546  -3.625146060
  O   -3.007471467  -2.159891535  -1.863643789
  N   -0.774152705  -4.592946272  -2.634088922
  C    0.502158327  -4.193965919  -3.157944991
  N    0.724033417  -4.480882359  -4.523887070
  C   -0.171496628  -5.210005635  -5.350896393
  C   -1.406405818  -5.666421527  -4.717450787
  C   -1.655477240  -5.382395370  -3.412588050
  O    1.338148850  -3.627775134  -2.478819984
  H    1.554952912  -4.023814550  -4.948954992
  O    0.159102993  -5.353300762  -6.530370004
  C   -2.360597762  -6.443616228  -5.556592336
  H   -3.351583444  -5.968213459  -5.593258628
  H   -2.006980119  -6.535542468  -6.596527231
  H   -2.489401633  -7.470486476  -5.175023078
  H   -2.557035796  -5.751298574  -2.901516177
  P    1.154659539  -5.278714335   2.534255092
  O    2.642351822  -5.571789015   1.932757464
  C    3.258103071  -6.819330508   2.373282517
  H    4.068683565  -6.487734077   3.060884311
  H    2.555293476  -7.489487932   2.909143936
  C    3.829146394  -7.522109786   1.138249318
  H    4.770068295  -8.063638576   1.408960376
  O    2.937377893  -8.600797039   0.741958768
  C    2.336678463  -8.356343958  -0.543064136
  H    2.567490518  -9.270048839  -1.144924389
  C    4.014380305  -6.607908911  -0.100748241
  H    3.972877271  -5.520884338   0.153714513
  C    2.931716571  -7.056885696  -1.094672660
  H    2.163700625  -6.262715922  -1.241833443
  H    3.348088234  -7.198142878  -2.112970597
  O    5.321322412  -6.739076060  -0.630427423
  O    0.152867609  -6.348719222   2.378441039
  O    1.454526601  -4.772418029   4.050612470
  N    0.845628110  -8.310707309  -0.327808457
  C   -0.037424350  -7.836488636  -1.406965371
  N   -1.402001596  -7.834911294  -1.182096998
  C   -1.907723637  -8.360678235  -0.023810165
  C   -1.060428913  -8.865478179   1.017270019
  C    0.300006122  -8.800924699   0.853935215
  O    0.499367114  -7.403752931  -2.414433559
  N   -3.277364816  -8.327696528   0.120893989
  H   -3.723114701  -8.796796516   0.894234701
  H   -3.865560431  -8.097170308  -0.666694268
  H    1.588186217  -4.477345888  -7.038093253
  H    1.000797696  -9.136600770   1.636135317
  H   -1.482824692  -9.246605382   1.944665923
  H    5.513343633  -7.650738500  -0.942012008
  H   -2.042899975  -2.969426377  -4.614386846
  H   -3.138725189  -2.372218674  -0.890754486
  H    0.709304358  -4.802343602   4.713185082
  H    1.377276814  -7.775263303  -9.333462247
  H   -4.290758708   5.807439628  -4.825941497

