%mem=64gb
%nproc=28       
%Chk=snap_170.chk
# opt b3lyp/6-31g(d,p)  scf=(xqc, tight)  pop=min    

tetra snap_170 

2     1 
  O    0.885725506  -1.671095272  -6.080151811
  C    0.898265205  -2.756230499  -6.995752793
  H    1.123592751  -3.711064097  -6.466642352
  H    1.749466483  -2.521099925  -7.672863149
  C   -0.418552760  -2.811959303  -7.788612451
  H   -0.615284726  -1.852624454  -8.319679101
  O   -0.216187158  -3.787665093  -8.864460115
  C   -1.234283389  -4.781706840  -8.865584994
  H   -1.489742386  -4.977915417  -9.936412925
  C   -1.674885747  -3.284845299  -7.013301945
  H   -1.427431649  -3.727321120  -6.020400090
  C   -2.359204651  -4.292974124  -7.948231948
  H   -3.163147040  -3.782232726  -8.530876758
  H   -2.886297215  -5.103369076  -7.411606938
  O   -2.576304595  -2.152918069  -6.905755215
  N   -0.602439079  -6.032109337  -8.302204771
  C   -1.075069184  -7.356301367  -8.425549109
  C   -0.239159149  -8.158354633  -7.591787072
  N    0.726791605  -7.331242863  -7.009966373
  C    0.495007344  -6.065085438  -7.416395082
  N   -2.124219230  -7.821431798  -9.161855429
  C   -2.337125303  -9.180934993  -9.055122907
  N   -1.538110472 -10.048327392  -8.267602788
  C   -0.477631547  -9.568051709  -7.407003093
  N   -3.360798705  -9.712317932  -9.791975728
  H   -3.922911355  -9.103086815 -10.382855043
  H   -3.632579950 -10.683615969  -9.741762710
  O    0.072191889 -10.332328223  -6.644740010
  H    1.082590395  -5.177890446  -7.102750432
  H   -1.808075031 -11.034608880  -8.143797870
  P   -2.672223187  -1.501029316  -5.397707113
  O   -2.770137865   0.116830312  -5.653723042
  C   -1.600562341   0.779176661  -6.174885902
  H   -2.017103001   1.776542347  -6.437395137
  H   -1.249140605   0.285637296  -7.103083311
  C   -0.472541024   0.903684688  -5.138208727
  H    0.349417564   0.152192732  -5.301684016
  O    0.195303986   2.183040132  -5.393543869
  C    0.141111076   3.034929335  -4.244743961
  H    1.149509199   3.520616256  -4.188945451
  C   -0.936086454   0.938098527  -3.660947617
  H   -2.052197532   0.975126348  -3.561616506
  C   -0.262007107   2.179604216  -3.050019207
  H    0.638434560   1.862720215  -2.464509994
  H   -0.903176335   2.679505125  -2.302402284
  O   -0.359489601  -0.205206232  -3.003221792
  O   -1.395313139  -1.934465678  -4.679282155
  O   -4.143581739  -1.953746385  -4.956071082
  N   -0.873018603   4.092164619  -4.589076371
  C   -1.050291517   4.628441238  -5.861626489
  C   -2.060424259   5.636876217  -5.754220113
  N   -2.502038275   5.711733414  -4.425890546
  C   -1.804063600   4.803025859  -3.743796320
  N   -0.434423295   4.338416402  -7.078775587
  C   -0.835566986   5.124148080  -8.175362335
  N   -1.757844211   6.070499803  -8.121884989
  C   -2.430969687   6.383331514  -6.919797936
  H   -0.334945823   4.925978069  -9.149934959
  N   -3.364198593   7.346345840  -6.945711753
  H   -3.583804251   7.855979035  -7.802935398
  H   -3.872406299   7.610039408  -6.100146011
  H   -1.884930643   4.601049575  -2.678418070
  P   -1.453824718  -1.363290420  -2.534159492
  O   -0.520680816  -2.705450251  -2.568729535
  C   -1.199770819  -3.976966782  -2.688003028
  H   -2.067514183  -3.939913663  -3.374230420
  H   -0.414008894  -4.617624575  -3.150833896
  C   -1.626058754  -4.451633208  -1.292301048
  H   -1.817678243  -3.616019578  -0.575046274
  O   -2.924484801  -5.085904438  -1.460097380
  C   -2.853661644  -6.487708401  -1.169861905
  H   -3.809073873  -6.711155954  -0.635280594
  C   -0.687112596  -5.507603419  -0.655344919
  H    0.183038003  -5.779250241  -1.304951147
  C   -1.583203096  -6.719978978  -0.350288302
  H   -1.073771629  -7.678526423  -0.571054847
  H   -1.816385680  -6.756926739   0.737744705
  O   -0.272389181  -4.923366593   0.600220247
  O   -2.840700064  -1.184021763  -3.085733862
  O   -1.407963638  -1.117678407  -0.918576164
  N   -2.865464480  -7.217061830  -2.489301280
  C   -1.696618122  -7.315554251  -3.294753630
  N   -1.835563945  -7.971216647  -4.540234155
  C   -3.073583521  -8.470985361  -5.072732497
  C   -4.237328298  -8.263984290  -4.202043080
  C   -4.110050520  -7.667856712  -2.989738054
  O   -0.610061678  -6.866602569  -2.965363307
  H   -0.960222623  -8.133541846  -5.053243672
  O   -3.031485178  -8.977661883  -6.176363626
  C   -5.546808171  -8.759045050  -4.708931932
  H   -6.379849151  -8.083078504  -4.465949690
  H   -5.542870295  -8.880647645  -5.805549086
  H   -5.791378114  -9.748191255  -4.285731694
  H   -4.976021447  -7.510998030  -2.329626891
  P    1.337748721  -5.031384939   0.926407371
  O    1.742361120  -3.490462581   0.504539439
  C    3.164003195  -3.241983979   0.340981503
  H    3.336757342  -2.357845867   0.994994014
  H    3.800070975  -4.087647262   0.681551441
  C    3.471196274  -2.905797252  -1.118445036
  H    4.303907145  -2.158729953  -1.180366417
  O    4.009768457  -4.112449522  -1.747208947
  C    3.497991476  -4.273283611  -3.077386046
  H    4.396106678  -4.285142611  -3.743608771
  C    2.274847636  -2.464541765  -1.985597797
  H    1.295786599  -2.731522763  -1.525537574
  C    2.500292667  -3.144090277  -3.343832510
  H    1.552094082  -3.491062644  -3.798494175
  H    2.908040449  -2.425818348  -4.087888903
  O    2.371819557  -1.039174194  -2.089140619
  O    2.102105095  -6.111698426   0.293466254
  O    1.311861143  -4.995138897   2.547957575
  N    2.867642017  -5.648534748  -3.156320204
  C    2.232565742  -6.023995896  -4.401613067
  N    1.905978083  -7.353316030  -4.612534866
  C    2.063021716  -8.280862585  -3.608541536
  C    2.627766390  -7.897635708  -2.348899550
  C    3.045127196  -6.603287959  -2.155021588
  O    2.002075533  -5.161087776  -5.247533117
  N    1.629851959  -9.549844689  -3.891723105
  H    1.808908798 -10.317421360  -3.259936365
  H    1.311703430  -9.800444267  -4.826047447
  H    0.292284356  -1.854712826  -5.290009004
  H    3.531400208  -6.264747086  -1.214140418
  H    2.724662064  -8.617022348  -1.534315645
  H    1.628238870  -0.702013822  -2.642565515
  H   -4.408146053  -1.736779588  -3.974620385
  H   -0.537058734  -1.288732161  -0.457198569
  H    0.668930950  -4.379033643   3.000747252
  H    1.411998149  -7.624685151  -6.230486645
  H    0.255520617   3.574839694  -7.132761532

