%mem=64gb
%nproc=28       
%Chk=snap_32.chk
# opt b3lyp/6-31g(d,p)  scf=(xqc, tight)  pop=min    

tetra snap_32 

2     1 
  O    2.141967791  -3.718937505  -6.420345881
  C    2.516441961  -3.198474303  -7.691799874
  H    2.930986045  -4.076323367  -8.231066397
  H    3.325192338  -2.453191312  -7.564754867
  C    1.317130527  -2.603772945  -8.445791274
  H    1.450727423  -1.518857479  -8.665304818
  O    1.296923909  -3.235270739  -9.770580854
  C    0.016712512  -3.764250336 -10.071733991
  H   -0.186993013  -3.500178262 -11.140701410
  C   -0.075914542  -2.878155473  -7.825258448
  H   -0.041652248  -3.694988736  -7.065617427
  C   -0.968760154  -3.269344440  -9.015860509
  H   -1.539047298  -2.380106230  -9.366906460
  H   -1.744926898  -4.004425092  -8.727074849
  O   -0.558632556  -1.639919305  -7.297912965
  N    0.142468257  -5.272436175 -10.002618364
  C   -0.141278073  -6.164518351 -11.058933257
  C    0.054686716  -7.479805013 -10.548686293
  N    0.458160764  -7.365921235  -9.206432966
  C    0.508449127  -6.044926724  -8.888718963
  N   -0.545826097  -5.848898088 -12.323911731
  C   -0.764864380  -6.934816307 -13.142613864
  N   -0.599512632  -8.271426730 -12.717408694
  C   -0.171960665  -8.646992815 -11.370547905
  N   -1.179605756  -6.683024039 -14.423144098
  H   -1.271538383  -5.720435187 -14.742640620
  H   -1.341010057  -7.411505412 -15.103697514
  O   -0.070100720  -9.817588761 -11.116398033
  H    0.760375070  -5.624179206  -7.893109093
  H   -0.782393490  -9.055578282 -13.362339090
  P   -0.792348883  -1.642308638  -5.646231152
  O   -1.394650474  -0.101591371  -5.630286812
  C   -0.499203435   0.881890376  -5.054303906
  H   -0.283354230   1.597186897  -5.879371932
  H    0.459915764   0.441267334  -4.696207917
  C   -1.254594930   1.567837546  -3.914599227
  H   -0.607230317   1.719819259  -3.014533575
  O   -1.549215765   2.937372584  -4.350580216
  C   -2.929925137   3.232846389  -4.216772059
  H   -2.973392791   4.252707334  -3.772183731
  C   -2.618648688   0.920257966  -3.545420906
  H   -2.981803102   0.176006518  -4.298196923
  C   -3.583177172   2.111066513  -3.408233208
  H   -3.673139042   2.378921465  -2.327636987
  H   -4.611748860   1.861019699  -3.724669462
  O   -2.535643165   0.320412512  -2.251447045
  O    0.482587291  -1.891522651  -4.932383863
  O   -2.036187290  -2.687277068  -5.653409039
  N   -3.487780380   3.288859824  -5.617504556
  C   -4.162644101   4.342215837  -6.226698672
  C   -4.416274604   3.942792560  -7.581155856
  N   -3.888855322   2.661295740  -7.798945105
  C   -3.338391269   2.283500002  -6.645353270
  N   -4.605049785   5.579971282  -5.753948656
  C   -5.290817413   6.394679891  -6.679163151
  N   -5.535798093   6.065143231  -7.934728583
  C   -5.110571863   4.827589666  -8.465140636
  H   -5.647779808   7.383726710  -6.310538521
  N   -5.382205235   4.563833759  -9.753514169
  H   -5.882495492   5.231992320 -10.340586077
  H   -5.091139709   3.685273226 -10.181986708
  H   -2.819091664   1.337468087  -6.452494842
  P   -1.830919892  -1.188867340  -2.196997263
  O   -0.453070967  -0.629072709  -1.528161854
  C    0.651013866  -1.557133140  -1.352866913
  H    0.939942246  -2.017559650  -2.329228728
  H    1.468046007  -0.899527557  -0.992293451
  C    0.161526519  -2.556731957  -0.309154869
  H   -0.141248150  -2.069645822   0.651196607
  O   -1.098406974  -3.026742065  -0.903932732
  C   -1.051879431  -4.464560638  -1.175903360
  H   -2.042896960  -4.823016968  -0.797345587
  C    1.035674773  -3.797033766  -0.040179495
  H    2.007096447  -3.778505663  -0.594527585
  C    0.151646716  -4.995908178  -0.407030242
  H    0.753663912  -5.731955481  -0.999522680
  H   -0.209972275  -5.570119179   0.487795408
  O    1.349534591  -3.692919193   1.364612114
  O   -1.713263268  -1.805485545  -3.557075662
  O   -2.980521649  -1.810252847  -1.239591855
  N   -0.977185965  -4.668014415  -2.645609123
  C    0.285628690  -4.596285157  -3.326662708
  N    0.285169219  -5.011782349  -4.675774787
  C   -0.845924226  -5.516553981  -5.378518245
  C   -2.089479540  -5.573462475  -4.605748360
  C   -2.114148412  -5.201519532  -3.299897529
  O    1.298440078  -4.198337442  -2.780687107
  H    1.195205134  -4.940108824  -5.180194438
  O   -0.672219288  -5.808751213  -6.556809716
  C   -3.293876828  -6.066652170  -5.328891061
  H   -4.160679099  -6.220951996  -4.672910165
  H   -3.592444018  -5.361977524  -6.121901506
  H   -3.092637024  -7.036685533  -5.815959043
  H   -3.022441397  -5.288674516  -2.686571701
  P    1.765525222  -5.062823051   2.177253610
  O    3.100831680  -5.543386951   1.373701297
  C    3.661021791  -6.813447770   1.825582930
  H    4.628233362  -6.522959887   2.294365912
  H    3.024525062  -7.335485562   2.569643722
  C    3.880069605  -7.696871768   0.595667405
  H    4.763320648  -8.363216937   0.760827172
  O    2.776663893  -8.639782912   0.484247038
  C    2.052307123  -8.472095709  -0.748388554
  H    2.117897611  -9.461989758  -1.263569172
  C    3.971291278  -6.931653300  -0.750506235
  H    4.111682716  -5.831289744  -0.617538855
  C    2.687631804  -7.302451559  -1.507599935
  H    2.000106228  -6.428105964  -1.582744596
  H    2.892001651  -7.556136870  -2.567032327
  O    5.146836637  -7.295616965  -1.452696574
  O    0.692498819  -6.062427669   2.328775822
  O    2.393238235  -4.416872497   3.530892942
  N    0.609561574  -8.237962260  -0.386312111
  C   -0.350058339  -7.894812600  -1.457765566
  N   -1.678511123  -7.742310305  -1.108403919
  C   -2.087293789  -7.980127212   0.173990820
  C   -1.165076642  -8.304341057   1.219486293
  C    0.171033233  -8.414485435   0.919667432
  O    0.109459682  -7.701680962  -2.569594225
  N   -3.435195155  -7.801991676   0.429707833
  H   -3.829944160  -8.153016790   1.290744559
  H   -4.077618055  -7.739656411  -0.350297156
  H    1.920567574  -2.978848834  -5.767663307
  H    0.929213236  -8.641748563   1.688385763
  H   -1.499068590  -8.421110442   2.248789424
  H    5.165120753  -8.246393962  -1.696103369
  H   -2.344532530  -3.014752399  -4.727415798
  H   -2.723959339  -2.171663959  -0.332414185
  H    1.785335305  -4.195694996   4.287456815
  H    0.640755804  -8.158237261  -8.594922805
  H   -4.425273156   5.885055871  -4.794416191

