%mem=64gb
%nproc=28       
%Chk=snap_162.chk
# opt b3lyp/6-31g(d,p)  scf=(xqc, tight)  pop=min    

tetra snap_162 

2     1 
  O    1.720230198  -2.427164368  -4.999620245
  C    1.235586785  -3.541483861  -5.735064300
  H    0.768085389  -4.275085137  -5.051784147
  H    2.168384882  -3.995055901  -6.150365096
  C    0.306269636  -3.078515849  -6.866958077
  H    0.438040182  -1.987921663  -7.064869613
  O    0.771454173  -3.706768400  -8.110747566
  C   -0.251191856  -4.471388750  -8.726357795
  H   -0.153950760  -4.320224350  -9.827933599
  C   -1.186852274  -3.473531792  -6.717748742
  H   -1.377295493  -4.166028148  -5.870118089
  C   -1.580602260  -4.088423853  -8.069843036
  H   -2.132840476  -3.336607346  -8.679997020
  H   -2.295552016  -4.932095829  -7.971349413
  O   -1.996258519  -2.285540193  -6.586557618
  N    0.085066406  -5.919549589  -8.429464123
  C   -0.734756570  -7.039106841  -8.692158990
  C   -0.212785327  -8.111283303  -7.908688040
  N    0.927828540  -7.649538385  -7.239795236
  C    1.088701074  -6.336811223  -7.531917305
  N   -1.809253738  -7.124512109  -9.530581836
  C   -2.440503327  -8.347681390  -9.520720947
  N   -2.028172330  -9.443004482  -8.720673071
  C   -0.914255249  -9.365163899  -7.792184408
  N   -3.535484260  -8.496628630 -10.332217669
  H   -3.813795509  -7.732011890 -10.943689892
  H   -4.025100029  -9.372479022 -10.440998575
  O   -0.710036052 -10.294205832  -7.044372160
  H    1.894300799  -5.680755683  -7.149256015
  H   -2.589306026 -10.305893447  -8.682601921
  P   -2.212621458  -1.723528661  -5.050181431
  O   -2.995500492  -0.329416399  -5.421701330
  C   -2.204358786   0.641199858  -6.141490192
  H   -2.955454394   1.441353682  -6.321821025
  H   -1.884613311   0.228229049  -7.120442095
  C   -1.016747205   1.161889575  -5.316733873
  H   -0.086989613   0.542348241  -5.421890836
  O   -0.644990265   2.452305420  -5.906188688
  C   -0.743614871   3.506698603  -4.943275915
  H    0.158200544   4.148728251  -5.117769267
  C   -1.335703161   1.430741101  -3.821707952
  H   -2.416906205   1.279043883  -3.577830751
  C   -0.862345235   2.873318208  -3.565021205
  H    0.138827418   2.832883708  -3.059771257
  H   -1.503385252   3.406152270  -2.842596536
  O   -0.462345275   0.603871980  -3.033918804
  O   -0.847211028  -1.550389173  -4.396636106
  O   -3.215933015  -2.827200909  -4.432470170
  N   -1.965417138   4.293029341  -5.338724227
  C   -2.340564542   4.561286202  -6.651618192
  C   -3.487059028   5.416869410  -6.594161291
  N   -3.820168305   5.656622811  -5.253619687
  C   -2.926584814   4.993387998  -4.518648781
  N   -1.798700646   4.145909861  -7.867542337
  C   -2.428627774   4.641852024  -9.023935966
  N   -3.479428407   5.445748875  -9.020580970
  C   -4.070724901   5.886703484  -7.815412501
  H   -2.001723873   4.333294217 -10.004466216
  N   -5.127486499   6.709261359  -7.887512040
  H   -5.498495793   7.027069254  -8.783862963
  H   -5.586464631   7.052515447  -7.041907888
  H   -2.886310108   4.961746487  -3.432283847
  P   -1.204138004  -0.685400865  -2.315435187
  O    0.030763325  -1.663824266  -1.911491769
  C   -0.127348734  -3.085919352  -2.103382135
  H   -0.578862645  -3.327857696  -3.084611403
  H    0.942907803  -3.419796645  -2.120334869
  C   -0.908963609  -3.702502783  -0.942616856
  H   -0.984412733  -3.028483161  -0.054583644
  O   -2.289809974  -3.879867013  -1.389685301
  C   -2.647314560  -5.262293700  -1.424059915
  H   -3.701482698  -5.287921698  -1.053659765
  C   -0.393971784  -5.110122293  -0.534855169
  H    0.406753514  -5.496005358  -1.214421492
  C   -1.636720531  -6.016810893  -0.558969474
  H   -1.403709430  -7.037628549  -0.918227858
  H   -2.027667390  -6.153011559   0.475374520
  O    0.062691478  -4.969838370   0.826834762
  O   -2.526618676  -1.113838467  -2.909986176
  O   -1.480489415  -0.039155047  -0.838942442
  N   -2.642460187  -5.704258189  -2.868060907
  C   -1.435330242  -5.968044820  -3.571453946
  N   -1.561546955  -6.532956829  -4.863182162
  C   -2.809775138  -6.738920803  -5.544180371
  C   -3.993347162  -6.290021073  -4.801717960
  C   -3.886574866  -5.815562052  -3.535857559
  O   -0.323336506  -5.718161017  -3.131065864
  H   -0.685907700  -6.888174435  -5.279734511
  O   -2.751534671  -7.218445489  -6.658933952
  C   -5.297804666  -6.401978471  -5.509952596
  H   -5.201709051  -6.150819159  -6.579384421
  H   -5.691993511  -7.431057283  -5.459223466
  H   -6.069486691  -5.735866135  -5.098718121
  H   -4.765983944  -5.488913057  -2.961731757
  P    1.475125550  -5.755533552   1.144058754
  O    2.537445079  -4.635528166   0.611495914
  C    3.940696053  -5.031005625   0.656273387
  H    4.374494702  -4.399075811   1.464318095
  H    4.088258038  -6.104144161   0.895727249
  C    4.558088822  -4.697159919  -0.702418163
  H    5.654280193  -4.505638057  -0.586985716
  O    4.506865406  -5.889461923  -1.541663274
  C    3.831302689  -5.621651067  -2.780563045
  H    4.605623030  -5.732529442  -3.581725506
  C    3.848309746  -3.550379897  -1.472983171
  H    3.130127262  -2.985087023  -0.829753586
  C    3.202816328  -4.230664187  -2.687911766
  H    2.096420457  -4.277733194  -2.581016453
  H    3.340365057  -3.637388590  -3.621660892
  O    4.778611788  -2.545653763  -1.832155403
  O    1.608527046  -7.104106669   0.562110608
  O    1.574098095  -5.607850639   2.758649796
  N    2.820381797  -6.721379583  -2.982162608
  C    2.248485445  -6.850003661  -4.308778143
  N    1.467362160  -7.957978230  -4.596676290
  C    1.188438465  -8.885676322  -3.620691968
  C    1.697606615  -8.726314716  -2.292506206
  C    2.523452946  -7.665644294  -2.004721677
  O    2.478355048  -5.985162474  -5.149229921
  N    0.373257621  -9.921907218  -3.998277672
  H    0.228703331 -10.718208522  -3.393666619
  H    0.112325952 -10.044317615  -4.976482179
  H    0.982831001  -1.974737156  -4.503665684
  H    2.981675104  -7.528130896  -1.003920390
  H    1.444254890  -9.433533194  -1.501567209
  H    5.418274923  -2.846932815  -2.514171904
  H   -3.303029896  -2.769041407  -3.389501830
  H   -0.734375940  -0.024915879  -0.181511133
  H    1.214812918  -6.344487321   3.329452337
  H    1.409619145  -8.166647527  -6.463997541
  H   -1.002686441   3.491292751  -7.874232549

