%mem=64gb
%nproc=28       
%Chk=snap_62.chk
# opt b3lyp/6-31g(d,p)  scf=(xqc, tight)  pop=min    

tetra snap_62 

2     1 
  O    1.055849851  -4.479005869  -5.300811709
  C    1.665105809  -3.294935069  -5.849172569
  H    2.734479317  -3.522459857  -6.028016584
  H    1.553007218  -2.458041733  -5.127201529
  C    0.928405426  -2.990697672  -7.153313328
  H    1.125808955  -1.947078326  -7.494168011
  O    1.479556504  -3.822166231  -8.228439057
  C    0.448002653  -4.510466642  -8.928140542
  H    0.708608860  -4.450797180 -10.014250636
  C   -0.591937601  -3.304851705  -7.113586889
  H   -0.853260386  -4.026530005  -6.302834680
  C   -0.892082422  -3.906968220  -8.492575192
  H   -1.232553137  -3.113360158  -9.192753998
  H   -1.728121713  -4.632887332  -8.462370420
  O   -1.312546742  -2.068531691  -6.981586898
  N    0.537413383  -5.961836393  -8.519893785
  C    0.272799410  -7.080324617  -9.336184920
  C    0.357696243  -8.231585965  -8.497420568
  N    0.677748198  -7.796572607  -7.202912174
  C    0.809314635  -6.449392555  -7.228875879
  N    0.016767841  -7.091923605 -10.680634394
  C   -0.132022124  -8.346875102 -11.222050519
  N   -0.076604551  -9.535554301 -10.461098338
  C    0.158098542  -9.564138476  -9.017242917
  N   -0.355437213  -8.432551348 -12.573015807
  H   -0.375704275  -7.585112431 -13.134731096
  H   -0.427321822  -9.312359680 -13.062269031
  O    0.163388601 -10.636634690  -8.474558424
  H    1.153181895  -5.808879360  -6.370891545
  H   -0.208543785 -10.454111187 -10.908277790
  P   -1.745557146  -1.770119386  -5.397216742
  O   -2.702756282  -0.447255025  -5.662675657
  C   -2.038962013   0.823603267  -5.628340870
  H   -2.722390728   1.455425939  -6.235226941
  H   -1.046607513   0.800238207  -6.117442937
  C   -1.956794985   1.315843030  -4.171404585
  H   -1.019225174   0.999734587  -3.650962100
  O   -1.826542237   2.773042793  -4.209817548
  C   -3.025823064   3.411815262  -3.767168470
  H   -2.683838490   4.275682596  -3.139996570
  C   -3.245102307   1.001723810  -3.366655764
  H   -3.932272883   0.304491690  -3.909458398
  C   -3.889862456   2.369430222  -3.065749273
  H   -3.886558897   2.527645467  -1.955417365
  H   -4.958204000   2.380632062  -3.344110190
  O   -2.928620014   0.476849505  -2.070295599
  O   -0.532595940  -1.574384863  -4.566978035
  O   -2.795161472  -2.999550325  -5.261739667
  N   -3.664323799   3.966588004  -5.016582126
  C   -2.980093931   4.330299472  -6.172072002
  C   -3.948823449   4.859062335  -7.085142782
  N   -5.216398610   4.821427754  -6.489143590
  C   -5.045704028   4.299006775  -5.273525030
  N   -1.628813038   4.252998487  -6.509536695
  C   -1.279729865   4.748513920  -7.777984095
  N   -2.139193974   5.243459603  -8.654466449
  C   -3.519564522   5.329092512  -8.368247738
  H   -0.202660715   4.714954837  -8.055421531
  N   -4.332249473   5.835043253  -9.308302676
  H   -3.971998080   6.159466938 -10.206708152
  H   -5.335491425   5.928324873  -9.143087249
  H   -5.824831812   4.142750759  -4.531576335
  P   -2.460946501  -1.112850779  -1.976158920
  O   -0.950571549  -0.755389997  -1.472646390
  C    0.034562978  -1.822793414  -1.543800896
  H    0.055250841  -2.278052772  -2.562398750
  H    0.986932486  -1.286740616  -1.357737094
  C   -0.367083665  -2.766481612  -0.414346327
  H   -0.380609076  -2.247479230   0.579085982
  O   -1.779301819  -3.030818000  -0.726018750
  C   -2.034906739  -4.462010106  -0.817641906
  H   -2.992067963  -4.578992840  -0.250995939
  C    0.328617276  -4.134511461  -0.286582104
  H    1.033247797  -4.351100534  -1.122599451
  C   -0.825636776  -5.150865555  -0.187289084
  H   -0.563896597  -6.122114604  -0.662487519
  H   -1.031380812  -5.412125820   0.874071587
  O    1.037372150  -4.023289472   0.967080418
  O   -2.652556311  -1.826299748  -3.276489106
  O   -3.490400109  -1.537101785  -0.795564787
  N   -2.261695059  -4.831634793  -2.241191410
  C   -1.184634813  -5.131249238  -3.125349002
  N   -1.518665200  -5.702389835  -4.360536890
  C   -2.862043910  -5.934805667  -4.843681721
  C   -3.911600672  -5.455716126  -3.918065238
  C   -3.603373254  -4.953469579  -2.698378463
  O   -0.008688359  -4.921024412  -2.825740590
  H   -0.725864372  -6.026854962  -4.941293950
  O   -2.964628363  -6.460783392  -5.924303247
  C   -5.306375544  -5.534269752  -4.428517695
  H   -6.068416491  -5.324243862  -3.665802890
  H   -5.463503287  -4.817429797  -5.255556520
  H   -5.531247181  -6.533849823  -4.843276664
  H   -4.374072884  -4.595963321  -2.000716113
  P    2.144159763  -5.206320807   1.265645547
  O    3.365754045  -4.675207626   0.319384564
  C    4.500782208  -5.576955945   0.183990067
  H    5.343685312  -5.006134280   0.632892495
  H    4.373419774  -6.538925635   0.725904492
  C    4.721231267  -5.836177954  -1.306841426
  H    5.808254211  -6.001044535  -1.521933847
  O    4.094663647  -7.117830213  -1.608564501
  C    3.394405176  -7.059968006  -2.860141416
  H    3.943463262  -7.739497915  -3.560915096
  C    4.114210403  -4.785827777  -2.275333049
  H    3.517788266  -4.010819095  -1.749082153
  C    3.316430028  -5.592540064  -3.304308083
  H    2.269454123  -5.232540795  -3.405892055
  H    3.765606326  -5.467168890  -4.317856199
  O    5.153921166  -4.154140740  -3.026688372
  O    1.677798540  -6.588954267   1.061507565
  O    2.654115039  -4.784733858   2.748141187
  N    2.023625554  -7.639281024  -2.632125701
  C    1.209002808  -7.862494161  -3.817866038
  N   -0.057563671  -8.381990627  -3.682313153
  C   -0.529466577  -8.699167270  -2.435681877
  C    0.268064144  -8.505769916  -1.261398271
  C    1.538580882  -7.989790581  -1.382309561
  O    1.693660899  -7.552013089  -4.906660267
  N   -1.842067722  -9.124099034  -2.370699317
  H   -2.167650486  -9.619868810  -1.552154100
  H   -2.317866888  -9.360455704  -3.238154854
  H    1.083324871  -4.503811955  -4.300661377
  H    2.203702423  -7.835736994  -0.505699303
  H   -0.101756275  -8.784659108  -0.275100693
  H    5.638990057  -3.492570317  -2.488251727
  H   -3.171444598  -3.160941022  -4.320363152
  H   -3.121771809  -1.707926430   0.123573990
  H    2.259377723  -5.244216372   3.542068561
  H    0.813705989  -8.383380848  -6.358484220
  H   -0.960656351   3.851241209  -5.832353842

