%mem=64gb
%nproc=28       
%Chk=snap_8.chk
# opt b3lyp/6-31g(d,p)  scf=(xqc, tight)  pop=min    

tetra snap_8 

2     1 
  O    2.013322256  -3.711308537  -7.557555905
  C    2.164312157  -2.632474052  -8.492638629
  H    2.913608429  -3.023285669  -9.218247714
  H    2.585470765  -1.755001891  -7.963134401
  C    0.855614101  -2.282633937  -9.208578035
  H    0.853044511  -1.221772548  -9.557254534
  O    0.813192339  -3.064563728 -10.451858523
  C   -0.399455389  -3.794428876 -10.549194775
  H   -0.675735966  -3.805437311 -11.633204220
  C   -0.458866380  -2.633942429  -8.464573149
  H   -0.306539307  -3.432841545  -7.682893387
  C   -1.389317509  -3.160378536  -9.564564408
  H   -1.956661307  -2.325860160 -10.032648091
  H   -2.158454868  -3.857081667  -9.180649564
  O   -1.016661342  -1.413217389  -7.915467225
  N   -0.090618043  -5.217275649 -10.136036775
  C   -0.514534060  -6.373165791 -10.825751510
  C   -0.030684473  -7.491479286 -10.091519026
  N    0.676789258  -6.998509785  -8.976170349
  C    0.635133629  -5.642772249  -9.009450442
  N   -1.254894523  -6.425519833 -11.972348258
  C   -1.514632283  -7.698589923 -12.426779127
  N   -1.060590528  -8.862537002 -11.768874209
  C   -0.283009498  -8.843499159 -10.528605629
  N   -2.277259724  -7.814799249 -13.559916958
  H   -2.578725608  -6.973445962 -14.048893861
  H   -2.457083016  -8.697893590 -14.014680324
  O    0.032285388  -9.899358563 -10.047755612
  H    1.112774498  -4.928487833  -8.242790722
  H   -1.273187834  -9.797669083 -12.146813474
  P   -0.778223781  -1.382671215  -6.286065701
  O   -1.188402673   0.176762067  -5.957134398
  C   -0.638869947   0.701741920  -4.718951915
  H   -0.179032645   1.668343106  -5.033260576
  H    0.154406434   0.048218624  -4.291730054
  C   -1.763788096   0.959212655  -3.711606491
  H   -1.376018479   0.910182758  -2.657615552
  O   -2.140066621   2.368974287  -3.817035380
  C   -3.485743147   2.519788656  -4.246395862
  H   -3.907192587   3.334480769  -3.612494132
  C   -3.064209322   0.132747425  -3.899185602
  H   -3.024400502  -0.609779698  -4.733745776
  C   -4.183721136   1.167363025  -4.112845766
  H   -4.858760398   1.147395701  -3.219040174
  H   -4.843694478   0.906991798  -4.960932063
  O   -3.432126351  -0.537515275  -2.682559302
  O    0.570037719  -1.833462843  -5.856904143
  O   -2.059531035  -2.211469745  -5.762607292
  N   -3.427956076   3.000101761  -5.670617328
  C   -3.538905868   4.317462129  -6.114188302
  C   -3.209842952   4.315084331  -7.509051891
  N   -2.872956448   3.012520628  -7.910019795
  C   -2.987608002   2.248149272  -6.825596277
  N   -3.917034037   5.497963849  -5.472503040
  C   -3.947710463   6.661392919  -6.269653049
  N   -3.645190307   6.699483217  -7.554909124
  C   -3.251286076   5.536512858  -8.251983010
  H   -4.254115331   7.607837801  -5.767867704
  N   -2.939392357   5.650671602  -9.552970605
  H   -2.986591789   6.548000717 -10.035847354
  H   -2.648739031   4.838065485 -10.096420938
  H   -2.776132505   1.176247346  -6.759935228
  P   -2.469949099  -1.792052744  -2.183011606
  O   -1.618271522  -0.896453436  -1.105438910
  C   -0.360672525  -1.454811603  -0.654736220
  H    0.321889554  -1.621689318  -1.521930660
  H    0.044727045  -0.651425682  -0.004637733
  C   -0.679016948  -2.733594376   0.117574132
  H   -1.223891113  -2.549237067   1.076535598
  O   -1.651894751  -3.433611009  -0.729817173
  C   -1.176350729  -4.782354891  -1.080656439
  H   -2.051482146  -5.428700609  -0.816134747
  C    0.518653475  -3.683635686   0.325236608
  H    1.468602687  -3.309728834  -0.132459721
  C    0.074284774  -5.034987038  -0.245845870
  H    0.902742132  -5.506756937  -0.835057343
  H   -0.128471165  -5.767429789   0.569980610
  O    0.636599639  -3.740838449   1.766001705
  O   -1.654225194  -2.353108632  -3.302926947
  O   -3.679417356  -2.660405254  -1.552059780
  N   -0.947545681  -4.821555357  -2.544427757
  C    0.148189417  -4.109811871  -3.138248142
  N    0.278141850  -4.247328116  -4.541066973
  C   -0.554028930  -5.059617134  -5.364994903
  C   -1.631975810  -5.758156566  -4.677055310
  C   -1.787507024  -5.640050659  -3.330536393
  O    0.937999983  -3.450912503  -2.486464138
  H    0.991297785  -3.638517887  -4.996762224
  O   -0.294865090  -5.064974952  -6.567782056
  C   -2.536972406  -6.615824695  -5.494313641
  H   -2.144579950  -6.768261654  -6.511569674
  H   -2.661188433  -7.616015637  -5.048959441
  H   -3.535762306  -6.165435181  -5.595286466
  H   -2.565537585  -6.197554607  -2.786046091
  P    2.016931907  -4.379033095   2.380571258
  O    1.964103989  -5.855285899   1.650687095
  C    2.933696695  -6.832415343   2.110408169
  H    3.555064866  -6.455406133   2.947973125
  H    2.307923488  -7.672292562   2.486428791
  C    3.801195140  -7.294190727   0.933588261
  H    4.790430620  -7.661074402   1.305138168
  O    3.218178228  -8.499904523   0.357230556
  C    2.592665987  -8.229903428  -0.906906357
  H    2.940340469  -9.050727217  -1.579632668
  C    3.957789952  -6.295020235  -0.241914741
  H    3.779831004  -5.228223040   0.038410535
  C    3.000931304  -6.814363153  -1.328690807
  H    2.126179119  -6.129158207  -1.437391448
  H    3.468696813  -6.800245370  -2.332848698
  O    5.305426847  -6.256010538  -0.677990795
  O    2.211014428  -4.279774960   3.820042074
  O    3.160361924  -3.664001611   1.423591274
  N    1.104764455  -8.391421428  -0.698843444
  C    0.159159039  -7.889972830  -1.711249741
  N   -1.194983828  -7.964300145  -1.420197369
  C   -1.624701434  -8.588608420  -0.285009388
  C   -0.711363341  -9.160830946   0.661896323
  C    0.636959235  -9.044016656   0.429793292
  O    0.628046252  -7.395778745  -2.719543568
  N   -2.985758003  -8.574545872  -0.051612204
  H   -3.380725851  -9.161095767   0.669659341
  H   -3.615901638  -8.311986851  -0.797980570
  H    1.571671085  -3.380914346  -6.717330366
  H    1.388883779  -9.462274759   1.122453273
  H   -1.076258009  -9.679683470   1.545252044
  H    5.616398492  -7.121827198  -1.023472910
  H   -1.956527683  -2.695652190  -4.820115032
  H   -3.559099557  -3.034285125  -0.618072308
  H    3.881902640  -3.137665340   1.856057810
  H    1.112043157  -7.587499625  -8.271192793
  H   -4.129378535   5.522028630  -4.472372826

