%mem=64gb
%nproc=28       
%Chk=snap_93.chk
# opt b3lyp/6-31g(d,p)  scf=(xqc, tight)  pop=min    

tetra snap_93 

2     1 
  O    2.732945752  -4.748062142  -7.591678891
  C    2.339362627  -3.524303810  -8.222539556
  H    2.871284435  -3.583115271  -9.201218515
  H    2.735704110  -2.673655069  -7.634724188
  C    0.834204991  -3.372258392  -8.441792074
  H    0.611764034  -2.364748758  -8.880486899
  O    0.418355879  -4.314553707  -9.487938776
  C   -0.754127349  -5.023588516  -9.102734449
  H   -1.401477386  -5.099747090 -10.008793280
  C   -0.100333942  -3.630114471  -7.231268171
  H    0.370090618  -4.247456133  -6.431711613
  C   -1.323409678  -4.316754056  -7.869173690
  H   -2.096580382  -3.569714660  -8.152838696
  H   -1.854876165  -4.998432909  -7.170325154
  O   -0.390044835  -2.315685956  -6.735300408
  N   -0.310979718  -6.423045209  -8.732000212
  C   -1.151947142  -7.543609850  -8.539513605
  C   -0.397408734  -8.488826926  -7.784853995
  N    0.880848655  -7.949621083  -7.565245266
  C    0.916200903  -6.710424908  -8.108078786
  N   -2.419537256  -7.756332401  -9.009854988
  C   -2.979968800  -8.943675254  -8.614456258
  N   -2.322950044  -9.898004933  -7.795898851
  C   -0.978056903  -9.704357693  -7.281009480
  N   -4.272401238  -9.201520556  -9.014082137
  H   -4.721486004  -8.556104975  -9.661584173
  H   -4.685636190 -10.119926807  -8.939913540
  O   -0.516993023 -10.532009964  -6.527249007
  H    1.802409127  -5.978614967  -8.108779909
  H   -2.815429069 -10.742878561  -7.475925207
  P   -1.106179870  -2.189269606  -5.240111309
  O   -1.883245438  -0.763003212  -5.567964620
  C   -1.249420683   0.439141140  -5.101942327
  H   -1.503646900   1.175483266  -5.893927228
  H   -0.148050535   0.353502723  -5.031879388
  C   -1.883407441   0.821493054  -3.752391746
  H   -1.285298324   0.470919666  -2.873762795
  O   -1.805915123   2.274513806  -3.612324701
  C   -3.103523726   2.875274464  -3.657049278
  H   -3.113775080   3.611090731  -2.810161832
  C   -3.385328133   0.439506569  -3.678319051
  H   -3.717548745  -0.191972103  -4.542122065
  C   -4.152293571   1.771464039  -3.588938034
  H   -4.705184559   1.799151473  -2.613638785
  H   -4.942479433   1.831266697  -4.359081312
  O   -3.718028627  -0.234232972  -2.453374480
  O   -0.099482153  -2.146789845  -4.154870806
  O   -2.208587184  -3.359796868  -5.461389105
  N   -3.131166997   3.658322220  -4.943692381
  C   -2.025208704   4.282837441  -5.512828689
  C   -2.503057889   5.055860958  -6.619564977
  N   -3.891410404   4.898284143  -6.730615509
  C   -4.258387542   4.081057015  -5.742331946
  N   -0.672218511   4.249807366  -5.175680967
  C    0.178692045   5.048521573  -5.960632207
  N   -0.219865490   5.791894722  -6.980416105
  C   -1.576513950   5.850332830  -7.369318201
  H    1.260749836   5.047962214  -5.698645528
  N   -1.908962310   6.643130845  -8.399109372
  H   -1.209962311   7.202049921  -8.890415415
  H   -2.877919822   6.722526502  -8.711591746
  H   -5.273238079   3.756855189  -5.525078526
  P   -2.991416849  -1.695616785  -2.171268131
  O   -1.804812704  -1.075421039  -1.233246478
  C   -0.657644619  -1.941193546  -1.021025878
  H   -0.253535707  -2.290983409  -2.003667576
  H    0.083319772  -1.270918889  -0.535477711
  C   -1.143425117  -3.056031262  -0.104164725
  H   -1.444823244  -2.690394912   0.906750362
  O   -2.390323993  -3.492416512  -0.750313556
  C   -2.418378952  -4.950568104  -0.901556451
  H   -3.424166793  -5.220553913  -0.492052223
  C   -0.251432918  -4.306804533  -0.005199956
  H    0.520331217  -4.332719372  -0.830824832
  C   -1.237929544  -5.486156002  -0.097585001
  H   -0.759568217  -6.389757615  -0.536757709
  H   -1.551746035  -5.814719379   0.918575766
  O    0.371467021  -4.232616335   1.280854634
  O   -2.549683400  -2.349616885  -3.442523277
  O   -4.248092777  -2.369195065  -1.401241614
  N   -2.380342470  -5.276626848  -2.352006506
  C   -1.152128345  -5.533155198  -3.051080183
  N   -1.273730004  -6.068551659  -4.349046296
  C   -2.513474968  -6.304267768  -5.026280570
  C   -3.707948598  -5.824084896  -4.307327954
  C   -3.618583135  -5.351720724  -3.040303448
  O   -0.057362767  -5.335793893  -2.554483584
  H   -0.383853439  -6.311444388  -4.842272088
  O   -2.457279336  -6.836754501  -6.116164707
  C   -4.986883945  -5.891029891  -5.064931007
  H   -4.894247679  -5.393844438  -6.046303611
  H   -5.269027453  -6.938304003  -5.271355160
  H   -5.833900696  -5.425082404  -4.543857688
  H   -4.499198527  -4.995706078  -2.483906316
  P    1.749224316  -5.158679684   1.420342828
  O    2.774828617  -4.218383646   0.528854828
  C    3.518403778  -4.904502583  -0.505155015
  H    4.518088220  -5.135498051  -0.076810995
  H    3.029307309  -5.848108886  -0.825965042
  C    3.647256882  -3.899187568  -1.660041242
  H    4.273237111  -3.018101289  -1.387788225
  O    4.416941497  -4.619152101  -2.682830918
  C    3.663189705  -4.784266853  -3.884211043
  H    4.404872422  -4.641160418  -4.706695962
  C    2.325088187  -3.476708672  -2.334677039
  H    1.437078255  -4.006648057  -1.895973069
  C    2.502730674  -3.797947590  -3.826928931
  H    1.543796195  -4.171920383  -4.250760746
  H    2.730806583  -2.879699664  -4.403827058
  O    2.143233797  -2.075080723  -2.125864571
  O    1.652768186  -6.559462802   1.009480903
  O    2.138363695  -4.785372681   2.944476763
  N    3.194315111  -6.230556563  -3.935529058
  C    2.100153389  -6.628145691  -4.785324355
  N    1.736929690  -7.950073160  -4.861565129
  C    2.361541480  -8.898376425  -4.081770053
  C    3.428348444  -8.513308725  -3.193875668
  C    3.825699962  -7.202435709  -3.155576317
  O    1.510124364  -5.776010830  -5.470523925
  N    1.936242354 -10.179342573  -4.260702385
  H    2.298384508 -10.946774972  -3.712716392
  H    1.163782096 -10.386903670  -4.899898856
  H    2.426324120  -4.803434010  -6.637866740
  H    4.664266839  -6.856024365  -2.523911135
  H    3.917924031  -9.258500869  -2.565287264
  H    1.459865611  -1.739484951  -2.773623508
  H   -2.802086245  -3.575548274  -4.643701604
  H   -4.168361554  -2.501777096  -0.402439683
  H    2.235872491  -3.813314777   3.175867162
  H    1.541274881  -8.340504080  -6.887483438
  H   -0.360845391   3.660747702  -4.387283444

