%mem=64gb
%nproc=28       
%Chk=snap_105.chk
# opt b3lyp/6-31g(d,p)  scf=(xqc, tight)  pop=min    

tetra snap_105 

2     1 
  O    2.953609978  -5.063156043  -7.104120472
  C    2.759296922  -3.805935227  -7.754485959
  H    3.376198940  -3.925276741  -8.676913428
  H    3.188987545  -3.001911765  -7.126338799
  C    1.312390278  -3.486119348  -8.132252096
  H    1.256628295  -2.461056752  -8.582121012
  O    0.936187562  -4.382305592  -9.233242995
  C   -0.341275146  -4.960993342  -9.009960862
  H   -0.865541129  -4.979190359  -9.995748929
  C    0.205056164  -3.642569832  -7.057164579
  H    0.495172577  -4.314184347  -6.216666986
  C   -0.993565354  -4.183634774  -7.861275041
  H   -1.619064410  -3.351687987  -8.249877670
  H   -1.695267109  -4.787043738  -7.246956946
  O   -0.015367711  -2.308321059  -6.572273537
  N   -0.117886974  -6.395109042  -8.583516447
  C   -1.111629934  -7.400054378  -8.579185372
  C   -0.652868215  -8.421798687  -7.698332477
  N    0.607674915  -8.036491669  -7.206054122
  C    0.916208322  -6.826689921  -7.732802951
  N   -2.270842721  -7.437744301  -9.304002907
  C   -3.050789955  -8.540887112  -9.065869276
  N   -2.697786447  -9.574996718  -8.165733381
  C   -1.472019016  -9.561777144  -7.375480377
  N   -4.256576384  -8.618757084  -9.726856284
  H   -4.472407181  -7.917501185 -10.433412824
  H   -4.802161801  -9.467841226  -9.755853137
  O   -1.290180718 -10.455687783  -6.584575238
  H    1.879311697  -6.219105814  -7.578397466
  H   -3.346599214 -10.352348228  -7.980313954
  P   -0.902194065  -2.117995440  -5.181760785
  O   -1.842155477  -0.846488137  -5.678198307
  C   -1.356944037   0.462134956  -5.346764963
  H   -1.883761745   1.103185413  -6.086544134
  H   -0.266050483   0.557683007  -5.504325865
  C   -1.768489587   0.811608037  -3.904326053
  H   -1.036242825   0.456486363  -3.137535727
  O   -1.679881399   2.265166376  -3.770490950
  C   -2.972879497   2.856736423  -3.621136462
  H   -2.874351874   3.561416697  -2.754113925
  C   -3.237996790   0.414146757  -3.609570814
  H   -3.665257232  -0.256012206  -4.398073390
  C   -4.004376062   1.742789472  -3.464854334
  H   -4.480526469   1.771690390  -2.450701774
  H   -4.848437101   1.792952927  -4.176362037
  O   -3.389123556  -0.198411496  -2.320322956
  O   -0.000248570  -1.832504898  -4.041657927
  O   -1.871271596  -3.407055620  -5.358065290
  N   -3.189373568   3.681309922  -4.862928548
  C   -2.196145274   4.204876482  -5.683286925
  C   -2.850154153   5.027416585  -6.657497051
  N   -4.232938772   5.008596389  -6.430326216
  C   -4.429394256   4.222602975  -5.371558825
  N   -0.810385987   4.045963289  -5.679488047
  C   -0.104040975   4.758590996  -6.665971799
  N   -0.664906242   5.531700901  -7.582003472
  C   -2.063588251   5.722986687  -7.631693545
  H    1.004138639   4.651896840  -6.671725291
  N   -2.563717127   6.538281269  -8.572447340
  H   -1.959163633   7.020350227  -9.239276981
  H   -3.568662442   6.709712187  -8.639727513
  H   -5.387205607   3.999358052  -4.907421117
  P   -2.788964764  -1.727539713  -2.106350084
  O   -1.650051403  -1.271084764  -1.034501660
  C   -0.520941914  -2.166082747  -0.873414285
  H   -0.037960709  -2.374939565  -1.859963158
  H    0.173395172  -1.566732868  -0.242056283
  C   -1.052100659  -3.397575115  -0.150857185
  H   -1.328522776  -3.185426338   0.910073459
  O   -2.322063316  -3.676661871  -0.840567546
  C   -2.475977635  -5.116368394  -1.074641168
  H   -3.478489212  -5.340448530  -0.632651733
  C   -0.226909882  -4.696971456  -0.261147949
  H    0.458513431  -4.701436687  -1.148680310
  C   -1.300664149  -5.795542165  -0.369457091
  H   -0.916208014  -6.696838723  -0.890056203
  H   -1.581334778  -6.152937251   0.647007782
  O    0.463914487  -4.859859926   0.988751342
  O   -2.378118387  -2.327507079  -3.414039504
  O   -4.108354723  -2.377304148  -1.419106894
  N   -2.524203451  -5.351804668  -2.539920386
  C   -1.336246209  -5.621997763  -3.298320805
  N   -1.524038949  -6.154881118  -4.587747628
  C   -2.793122258  -6.282805627  -5.242969065
  C   -3.941058598  -5.789162611  -4.458146269
  C   -3.790019229  -5.362220760  -3.181030079
  O   -0.219017308  -5.425343182  -2.852057643
  H   -0.652200191  -6.438973620  -5.085767436
  O   -2.798405541  -6.748029615  -6.362723536
  C   -5.263624069  -5.792034008  -5.140474110
  H   -5.172104984  -6.044464651  -6.211620675
  H   -5.944995875  -6.539528851  -4.702827835
  H   -5.764114526  -4.814097285  -5.087155716
  H   -4.635829768  -4.992654448  -2.582237993
  P    2.091632727  -5.082895458   0.823538676
  O    2.431148417  -3.651046751   0.104417806
  C    3.794599237  -3.450033014  -0.353285906
  H    4.072952166  -2.483671654   0.127775199
  H    4.491294261  -4.246278438  -0.021398239
  C    3.810450649  -3.320030674  -1.876544009
  H    4.643308230  -2.642775899  -2.200530050
  O    4.163911140  -4.630080676  -2.426618737
  C    3.391642386  -4.921712186  -3.599368846
  H    4.138780483  -5.011628186  -4.428850931
  C    2.485990336  -2.902217046  -2.546645766
  H    1.608696192  -2.962092942  -1.865103283
  C    2.339632153  -3.825706980  -3.765333333
  H    1.303211079  -4.231760903  -3.825827165
  H    2.493304597  -3.247466187  -4.696449854
  O    2.647307002  -1.541468786  -2.949844847
  O    2.542919977  -6.306820897   0.145523424
  O    2.586647052  -4.851540181   2.352430296
  N    2.773592211  -6.288686355  -3.416621216
  C    1.816265789  -6.758637128  -4.387240092
  N    1.387676149  -8.062244298  -4.363650422
  C    1.775414558  -8.887935021  -3.328262185
  C    2.617528139  -8.395698243  -2.278078457
  C    3.106365886  -7.113395086  -2.340959001
  O    1.408592506  -5.980408726  -5.270350154
  N    1.310763292 -10.170613280  -3.384061503
  H    1.577467476 -10.862461305  -2.699882126
  H    0.716636384 -10.477215256  -4.148135986
  H    2.542570262  -5.086614938  -6.188359212
  H    3.776299788  -6.686938564  -1.567010752
  H    2.860447773  -9.015993622  -1.414640805
  H    1.814037554  -1.254702305  -3.423353298
  H   -2.507112480  -3.592643573  -4.561714689
  H   -4.052215155  -2.621295653  -0.441831938
  H    2.762159645  -5.652101724   2.923815561
  H    1.087616683  -8.505126211  -6.426710453
  H   -0.371405118   3.458589068  -4.951882175

