%mem=64gb
%nproc=28       
%Chk=snap_75.chk
# opt b3lyp/6-31g(d,p)  scf=(xqc, tight)  pop=min    

tetra snap_75 

2     1 
  O    1.486173936  -3.682330748  -6.173168486
  C    1.422530133  -2.540184314  -7.028062442
  H    2.375396589  -2.582734135  -7.594878661
  H    1.406004980  -1.619694371  -6.413630989
  C    0.209215431  -2.585920755  -7.968270453
  H   -0.019350739  -1.588431902  -8.406812806
  O    0.539940632  -3.407370354  -9.138926121
  C   -0.371694487  -4.495229948  -9.264166764
  H   -0.513274570  -4.661827417 -10.358730306
  C   -1.046329178  -3.247198459  -7.338508347
  H   -0.756675621  -3.833166433  -6.429709272
  C   -1.605062013  -4.167022331  -8.429718329
  H   -2.384176119  -3.644627543  -9.028757148
  H   -2.145382671  -5.055689819  -8.018252158
  O   -2.001275846  -2.219597228  -7.054424005
  N    0.371813691  -5.694002298  -8.699731381
  C   -0.136093273  -6.975457157  -8.417780844
  C    0.952778942  -7.756661929  -7.944844655
  N    2.086427998  -6.932923949  -7.894145423
  C    1.726056981  -5.693488910  -8.326361122
  N   -1.435773714  -7.410446568  -8.522775645
  C   -1.659195597  -8.660230815  -8.037243057
  N   -0.631046794  -9.532121696  -7.621076447
  C    0.772601909  -9.129081997  -7.510766382
  N   -2.976720590  -9.060006441  -7.817237198
  H   -3.698788086  -8.385727365  -8.093600886
  H   -3.238354576 -10.025399591  -7.988648576
  O    1.556277287  -9.946528337  -7.110807787
  H    2.364806446  -4.806858145  -8.385523086
  H   -0.844387903 -10.496481166  -7.329913871
  P   -2.146711410  -1.889659147  -5.425316619
  O   -2.536388410  -0.285280198  -5.539297290
  C   -1.444119247   0.645967956  -5.504297992
  H   -1.702424818   1.372091406  -6.304867580
  H   -0.467481522   0.179037765  -5.738003235
  C   -1.420253346   1.336301210  -4.129682005
  H   -0.511770013   1.083782714  -3.529942170
  O   -1.259976092   2.774050034  -4.379606867
  C   -2.395195564   3.507219067  -3.914442481
  H   -1.978710646   4.450068462  -3.476217838
  C   -2.728489319   1.171941762  -3.308761052
  H   -3.515242568   0.592954085  -3.853754902
  C   -3.173917768   2.605950052  -2.967281563
  H   -2.903013614   2.812811529  -1.897952085
  H   -4.269968083   2.725458921  -2.991822428
  O   -2.443635065   0.583809677  -2.034488381
  O   -0.858669850  -2.255807989  -4.776414828
  O   -3.588719462  -2.590455636  -5.218859029
  N   -3.177531058   3.872874512  -5.150526262
  C   -2.616301370   4.203595960  -6.379533765
  C   -3.697607507   4.527200623  -7.261693059
  N   -4.912880275   4.382267334  -6.578934782
  C   -4.604082280   3.993760752  -5.340802495
  N   -1.288425755   4.255451213  -6.804451030
  C   -1.082603149   4.664908515  -8.134659502
  N   -2.048800168   4.980976354  -8.981460596
  C   -3.409183039   4.939781936  -8.602190183
  H   -0.029170087   4.723545514  -8.489293988
  N   -4.334218902   5.289714331  -9.508830062
  H   -4.074353619   5.591886021 -10.448799633
  H   -5.328954808   5.279471863  -9.276199985
  H   -5.312169240   3.794676354  -4.540148201
  P   -2.214692888  -1.060612306  -1.990729985
  O   -0.605576247  -0.926969492  -1.750932989
  C    0.218540192  -2.118960473  -1.837195232
  H    0.110566017  -2.589338515  -2.847578033
  H    1.244232924  -1.716099215  -1.715109612
  C   -0.232302276  -3.001790926  -0.677701551
  H   -0.127362821  -2.496702828   0.315953985
  O   -1.683402502  -3.089746170  -0.907507569
  C   -2.087235308  -4.470821271  -1.139180788
  H   -3.058374280  -4.531345167  -0.585457781
  C    0.297583680  -4.447746163  -0.595565110
  H    1.004623129  -4.709935816  -1.432428634
  C   -0.962531800  -5.333274635  -0.569479580
  H   -0.806187072  -6.289982755  -1.118407797
  H   -1.216151206  -5.654720569   0.465674018
  O    1.019070497  -4.462112319   0.648701082
  O   -2.736403711  -1.697052170  -3.243211063
  O   -3.102578468  -1.310547467  -0.660556972
  N   -2.326099851  -4.707356431  -2.586337482
  C   -1.257268883  -4.919623968  -3.512016045
  N   -1.626562422  -5.382018704  -4.794322340
  C   -2.975837885  -5.617049638  -5.235544558
  C   -4.011854164  -5.235442630  -4.258533134
  C   -3.676261163  -4.812971487  -3.016688350
  O   -0.079015384  -4.766213033  -3.230016438
  H   -0.847735679  -5.746321202  -5.378635814
  O   -3.111451257  -6.098992375  -6.339428835
  C   -5.417751320  -5.334989621  -4.733836871
  H   -5.597096976  -4.631391258  -5.568816889
  H   -5.641611897  -6.342882845  -5.124157426
  H   -6.164031619  -5.118621770  -3.958127006
  H   -4.433613055  -4.540946627  -2.269101436
  P    1.637475334  -5.916454208   1.148523172
  O    3.220361034  -5.514750499   1.194961880
  C    4.170473448  -6.446204938   0.622046691
  H    5.020119690  -6.358097726   1.338448728
  H    3.798118671  -7.493895428   0.616528372
  C    4.592681571  -6.016891452  -0.785919161
  H    5.704471188  -6.095383186  -0.882764618
  O    4.075497672  -7.029905420  -1.699283043
  C    3.541308705  -6.409528061  -2.884822004
  H    4.288699212  -6.573951222  -3.703914077
  C    4.091901646  -4.633647056  -1.284554260
  H    3.541108836  -4.060768230  -0.499142643
  C    3.270981203  -4.936154278  -2.547786967
  H    2.182321471  -4.738250996  -2.395948659
  H    3.545670895  -4.269957373  -3.390631766
  O    5.179590203  -3.766060564  -1.547505200
  O    1.213533216  -7.084025808   0.362475243
  O    1.221572557  -5.878994200   2.713914909
  N    2.290082750  -7.146710203  -3.244678041
  C    1.882539929  -7.105547545  -4.652190433
  N    0.632819420  -7.598362646  -4.986913933
  C   -0.134947223  -8.207976136  -4.029522337
  C    0.316355333  -8.371086372  -2.682631668
  C    1.527449721  -7.829711423  -2.313806806
  O    2.685152383  -6.638980759  -5.448866707
  N   -1.408730599  -8.580819060  -4.420452291
  H   -1.947235455  -9.219111680  -3.854147398
  H   -1.660946529  -8.528882082  -5.396957810
  H    0.781425050  -3.627039688  -5.467431652
  H    1.933007995  -7.920660141  -1.282859367
  H   -0.266597213  -8.928407626  -1.951518884
  H    5.779869920  -4.106807538  -2.246296910
  H   -3.995113258  -2.507378607  -4.277500414
  H   -2.675692691  -1.733721858   0.146112984
  H    1.690974666  -5.229332123   3.315689175
  H    2.939345630  -7.173087331  -7.365564162
  H   -0.534626813   3.982913481  -6.157057175

