%mem=64gb
%nproc=28       
%Chk=snap_139.chk
# opt b3lyp/6-31g(d,p)  scf=(xqc, tight)  pop=min    

tetra snap_139 

2     1 
  O    1.460017683  -2.438730783  -5.169781752
  C    1.278828415  -3.584046140  -5.989421211
  H    0.835291873  -4.407344470  -5.401374319
  H    2.320315084  -3.867923112  -6.263784129
  C    0.470491853  -3.223554629  -7.241860768
  H    0.657696708  -2.164876074  -7.543836387
  O    0.985319099  -4.015402097  -8.368182337
  C   -0.061308824  -4.722640583  -9.025067471
  H    0.161795938  -4.686354394 -10.117955479
  C   -1.044290989  -3.540462512  -7.167794717
  H   -1.309275182  -4.242118300  -6.346043229
  C   -1.387349167  -4.137904451  -8.541853536
  H   -1.754263643  -3.340080249  -9.226412353
  H   -2.222146445  -4.867860141  -8.498123325
  O   -1.746574441  -2.291833794  -7.053791789
  N    0.092504590  -6.159894090  -8.561111285
  C   -0.837729222  -7.216007078  -8.667716689
  C   -0.360034326  -8.261120228  -7.821198046
  N    0.840702117  -7.838328188  -7.241906788
  C    1.098141200  -6.578591275  -7.666717080
  N   -1.966310480  -7.291322446  -9.437846923
  C   -2.688467546  -8.448873168  -9.279860073
  N   -2.318631741  -9.501751994  -8.403847741
  C   -1.140107725  -9.444877164  -7.559251821
  N   -3.850876881  -8.573466756 -10.000640390
  H   -4.091232663  -7.856014295 -10.682409610
  H   -4.374800746  -9.435977349 -10.045287366
  O   -0.940293448 -10.337101732  -6.766365575
  H    1.964992560  -5.961320564  -7.378186711
  H   -2.936473028 -10.314881599  -8.270528160
  P   -2.324462994  -1.948167646  -5.542987889
  O   -3.227263416  -0.634297295  -5.962818291
  C   -2.443802791   0.565105109  -6.183563368
  H   -3.206636902   1.264205269  -6.588035892
  H   -1.671372511   0.397031971  -6.958320341
  C   -1.857662562   1.054235107  -4.850568353
  H   -0.882894640   0.560830637  -4.576708365
  O   -1.470314092   2.453158041  -4.996609348
  C   -2.236795865   3.302840109  -4.132885849
  H   -1.482566027   3.867189685  -3.522792719
  C   -2.902610765   0.980974077  -3.708604265
  H   -3.827110946   0.415942971  -3.989295283
  C   -3.211830296   2.444603271  -3.333575818
  H   -3.061406302   2.575004740  -2.234372918
  H   -4.277694920   2.678492255  -3.510948434
  O   -2.301526877   0.413915021  -2.551249925
  O   -1.204752818  -1.622188917  -4.586002427
  O   -3.291835223  -3.226549479  -5.355909666
  N   -2.897646530   4.280204453  -5.064922659
  C   -2.339001679   4.730340218  -6.257264721
  C   -3.212127759   5.741857578  -6.772965585
  N   -4.297396582   5.906354351  -5.900951537
  C   -4.108121479   5.049363530  -4.896253529
  N   -1.170014024   4.363936467  -6.923573888
  C   -0.893239937   5.062139220  -8.111426520
  N   -1.668410728   6.003499890  -8.626768412
  C   -2.870369376   6.398258918  -7.999224936
  H    0.044949291   4.796945265  -8.648020884
  N   -3.609274861   7.350276596  -8.589281195
  H   -3.319557336   7.782510761  -9.467258615
  H   -4.478050291   7.680327031  -8.167733819
  H   -4.756179071   4.921537937  -4.032161005
  P   -2.157451151  -1.252879627  -2.411124983
  O   -0.536657712  -1.184185106  -2.289508693
  C    0.209527028  -2.363599065  -1.912913151
  H    0.316201247  -3.016660150  -2.804783701
  H    1.207976007  -1.941748498  -1.642868001
  C   -0.494605643  -3.043680752  -0.743039565
  H   -0.639712235  -2.375652826   0.142555863
  O   -1.845596832  -3.273804410  -1.276145962
  C   -2.208394705  -4.660181067  -1.207133315
  H   -3.269106051  -4.633725888  -0.849631684
  C    0.035702878  -4.419611038  -0.293522593
  H    0.835846821  -4.811746308  -0.982780014
  C   -1.210438983  -5.324634073  -0.261942271
  H   -0.969665444  -6.379003116  -0.511016235
  H   -1.628075193  -5.375911674   0.769922140
  O    0.585242334  -4.201259073   1.015462531
  O   -3.051698241  -2.022115459  -3.339974857
  O   -2.756582166  -1.227926634  -0.881266237
  N   -2.191586851  -5.242676695  -2.595373035
  C   -0.984447935  -5.557246818  -3.284294631
  N   -1.122870493  -6.180433711  -4.550556840
  C   -2.374481307  -6.448115260  -5.199757550
  C   -3.564110427  -6.064563343  -4.427078610
  C   -3.444836988  -5.517030457  -3.192400937
  O    0.131276162  -5.311915335  -2.856551267
  H   -0.251739609  -6.539035432  -4.981396360
  O   -2.320612382  -6.933373128  -6.312149029
  C   -4.876832879  -6.304332498  -5.084761186
  H   -4.923616867  -5.797153259  -6.065325627
  H   -5.041054589  -7.378644545  -5.270682141
  H   -5.733265642  -5.943727227  -4.498358145
  H   -4.325804950  -5.247174773  -2.589442197
  P    1.476376247  -5.467498132   1.618349387
  O    3.003027447  -5.077690479   1.129699024
  C    3.608031779  -5.974368435   0.169445829
  H    4.413991091  -6.505286728   0.724319711
  H    2.900634223  -6.726230853  -0.235751626
  C    4.203947597  -5.064341251  -0.913803233
  H    5.011264757  -4.423647054  -0.492876842
  O    4.886773588  -5.953894611  -1.854649371
  C    4.345201339  -5.825931578  -3.174252152
  H    5.218859527  -5.919089200  -3.861887673
  C    3.183531143  -4.249875042  -1.750487102
  H    2.122899661  -4.564951015  -1.557383474
  C    3.577901606  -4.508641781  -3.211410976
  H    2.683346469  -4.519316296  -3.873843395
  H    4.194654665  -3.691694277  -3.635227062
  O    3.157841806  -2.879303026  -1.409314013
  O    1.004333334  -6.795439248   1.211478817
  O    1.526724518  -5.039713226   3.177005621
  N    3.443656735  -7.030262833  -3.393695319
  C    2.501202679  -7.052571777  -4.491229465
  N    1.709558780  -8.177293313  -4.667710157
  C    1.813785205  -9.258126754  -3.825189174
  C    2.761371224  -9.247064441  -2.742663126
  C    3.558228964  -8.146562715  -2.567253284
  O    2.419845019  -6.101890252  -5.264536571
  N    0.996766646 -10.314658950  -4.100006203
  H    1.001061099 -11.152112628  -3.535800319
  H    0.355966920 -10.294235194  -4.893871155
  H    0.593219609  -2.116988024  -4.775879034
  H    4.328810196  -8.099384866  -1.775751101
  H    2.854370382 -10.107657840  -2.079678472
  H    4.021074616  -2.433876862  -1.566843496
  H   -3.534331791  -3.440018282  -4.373484720
  H   -2.541922126  -0.421015610  -0.335486664
  H    2.011744847  -4.189848344   3.409574391
  H    1.333998805  -8.343817036  -6.468647577
  H   -0.583915123   3.604259711  -6.540441221

