%mem=64gb
%nproc=28       
%Chk=snap_74.chk
# opt b3lyp/6-31g(d,p)  scf=(xqc, tight)  pop=min    

tetra snap_74 

2     1 
  O    1.539424980  -3.744474768  -6.189134231
  C    1.468090269  -2.577464066  -7.010058391
  H    2.415904543  -2.604618763  -7.585888140
  H    1.458768966  -1.676937464  -6.367243598
  C    0.248615653  -2.596403668  -7.942041229
  H    0.031069676  -1.591104681  -8.366550282
  O    0.560924619  -3.407197615  -9.124585953
  C   -0.353893783  -4.492749790  -9.246439281
  H   -0.509617096  -4.654473080 -10.339537046
  C   -1.008570058  -3.247027773  -7.306918534
  H   -0.720279304  -3.829221636  -6.394641742
  C   -1.575934119  -4.164360590  -8.395049138
  H   -2.360232399  -3.637114028  -8.981896875
  H   -2.107035915  -5.055261691  -7.982481025
  O   -1.957261211  -2.212116704  -7.025104857
  N    0.386543472  -5.698151009  -8.696556539
  C   -0.122685301  -6.987224567  -8.450567317
  C    0.959976142  -7.770536578  -7.967816240
  N    2.088130262  -6.943508801  -7.876059716
  C    1.733087184  -5.698806089  -8.294750051
  N   -1.418286999  -7.424475600  -8.584285183
  C   -1.644196554  -8.681672463  -8.114129301
  N   -0.617362685  -9.560513947  -7.707514783
  C    0.783675724  -9.154873468  -7.573696355
  N   -2.959980630  -9.084991281  -7.907622798
  H   -3.683953291  -8.406242369  -8.163573167
  H   -3.223275990 -10.050055967  -8.071871989
  O    1.570088173  -9.981250008  -7.197362200
  H    2.371392183  -4.810291286  -8.325332173
  H   -0.828014222 -10.536846706  -7.456902112
  P   -2.122261386  -1.893563447  -5.395231213
  O   -2.468499066  -0.279233989  -5.492792326
  C   -1.365396527   0.636167991  -5.457127023
  H   -1.598178686   1.345600910  -6.279698812
  H   -0.390553407   0.153176867  -5.659962848
  C   -1.360627643   1.357159979  -4.098523183
  H   -0.453210918   1.126382543  -3.487509582
  O   -1.211502201   2.789461939  -4.384644936
  C   -2.324424220   3.535417219  -3.883875477
  H   -1.881688286   4.472292127  -3.458478454
  C   -2.670028948   1.203995907  -3.275915494
  H   -3.468599031   0.642785274  -3.822642647
  C   -3.089160663   2.642166068  -2.917874698
  H   -2.790457953   2.845435664  -1.855212912
  H   -4.185289697   2.769357773  -2.912750164
  O   -2.395202048   0.600638468  -2.006912185
  O   -0.860870197  -2.329656830  -4.737778989
  O   -3.598754303  -2.528875221  -5.221631677
  N   -3.136849215   3.908976265  -5.096840263
  C   -2.614917542   4.170202748  -6.359025818
  C   -3.716544900   4.524303397  -7.203398040
  N   -4.905684489   4.467691026  -6.463726285
  C   -4.562069569   4.103735390  -5.227439682
  N   -1.306562713   4.141954112  -6.842948941
  C   -1.139410833   4.505887124  -8.191668431
  N   -2.125016574   4.844821264  -9.006590322
  C   -3.467800359   4.878352085  -8.568323187
  H   -0.100890957   4.502054854  -8.591710442
  N   -4.415857035   5.236171709  -9.447444404
  H   -4.186114615   5.485965246 -10.409956783
  H   -5.398071906   5.281949916  -9.171407036
  H   -5.240431007   3.977121050  -4.387401110
  P   -2.184564795  -1.046026256  -1.982471556
  O   -0.567745522  -0.922754660  -1.793327615
  C    0.243321334  -2.122075857  -1.876963359
  H    0.119742540  -2.602265247  -2.881649620
  H    1.273399967  -1.728470339  -1.770950813
  C   -0.205122595  -2.995585471  -0.710375061
  H   -0.110817839  -2.483060629   0.280169929
  O   -1.654476659  -3.099182618  -0.948517329
  C   -2.035679382  -4.483662198  -1.209200972
  H   -3.017746243  -4.563303807  -0.677610330
  C    0.338174082  -4.435983376  -0.624466944
  H    1.055989942  -4.685720245  -1.455992950
  C   -0.913383992  -5.333550117  -0.618011715
  H   -0.736154998  -6.290640744  -1.158394149
  H   -1.183718031  -5.652857709   0.413553464
  O    1.048009846  -4.450290228   0.624412232
  O   -2.739179572  -1.665556167  -3.230802356
  O   -3.042524055  -1.289407351  -0.633716272
  N   -2.240160226  -4.707902526  -2.661864286
  C   -1.159296251  -4.972846540  -3.560470250
  N   -1.517851105  -5.487394181  -4.827099759
  C   -2.865614208  -5.702539167  -5.279352752
  C   -3.903150160  -5.189429922  -4.367755381
  C   -3.580850666  -4.731488002  -3.135494482
  O    0.016498133  -4.826935069  -3.267120299
  H   -0.742847661  -5.901748013  -5.383010927
  O   -3.002323804  -6.266602389  -6.343849665
  C   -5.289265778  -5.185570359  -4.905766653
  H   -5.556647223  -6.164039657  -5.339376341
  H   -6.052960014  -4.945065212  -4.155796503
  H   -5.383511203  -4.445041147  -5.722810903
  H   -4.339066262  -4.359946840  -2.433503090
  P    1.666348154  -5.901635637   1.132485994
  O    3.252430584  -5.511528644   1.150169249
  C    4.194410344  -6.477591552   0.622873569
  H    5.044658001  -6.365424499   1.334610697
  H    3.812628750  -7.520630453   0.665215510
  C    4.618479175  -6.112998480  -0.801871734
  H    5.726414962  -6.226976147  -0.904597718
  O    4.065533853  -7.143064617  -1.674034904
  C    3.544869050  -6.546523191  -2.877101604
  H    4.292727467  -6.741106085  -3.689301206
  C    4.148691790  -4.734405302  -1.343615075
  H    3.624135061  -4.118214941  -0.573405530
  C    3.299431770  -5.060348487  -2.581265524
  H    2.216141540  -4.845448806  -2.414870448
  H    3.563399831  -4.421375315  -3.447955647
  O    5.255326646  -3.906728767  -1.650938685
  O    1.219863697  -7.079926647   0.375827856
  O    1.276127371  -5.825523583   2.702989438
  N    2.285362949  -7.274335224  -3.224887128
  C    1.899796969  -7.258914685  -4.638283809
  N    0.655389691  -7.752915821  -4.984921523
  C   -0.130741767  -8.343390783  -4.028919319
  C    0.292302043  -8.468432279  -2.668457788
  C    1.498970526  -7.922773300  -2.289402986
  O    2.714837457  -6.797416871  -5.426602997
  N   -1.392637473  -8.729299825  -4.440552401
  H   -1.940054445  -9.363338598  -3.878308763
  H   -1.628340328  -8.683190812  -5.422007746
  H    0.837338491  -3.714246640  -5.481325294
  H    1.879380768  -7.983171661  -1.245766027
  H   -0.310131116  -9.002331107  -1.935040528
  H    5.835577468  -4.284287645  -2.346963374
  H   -4.043910251  -2.372977053  -4.308516745
  H   -2.645794497  -1.824588167   0.121006150
  H    1.767872781  -5.168613655   3.279614625
  H    2.927345376  -7.192418896  -7.325505851
  H   -0.537101688   3.865460249  -6.215002418

