%mem=64gb
%nproc=28       
%Chk=snap_71.chk
# opt b3lyp/6-31g(d,p)  scf=(xqc, tight)  pop=min    

tetra snap_71 

2     1 
  O    1.647203389  -4.045976207  -5.541412053
  C    1.869433451  -2.965691488  -6.442326215
  H    2.861239737  -3.208126739  -6.878585623
  H    1.928911754  -2.019027706  -5.869359223
  C    0.807307166  -2.857157124  -7.544718868
  H    0.736432381  -1.822280171  -7.952761506
  O    1.244162881  -3.643573602  -8.706038663
  C    0.277132144  -4.632581276  -9.040472968
  H    0.266930465  -4.688233984 -10.157568574
  C   -0.587914060  -3.412708505  -7.160761280
  H   -0.529459525  -4.021783073  -6.224025817
  C   -1.031760138  -4.258448492  -8.359384799
  H   -1.683438568  -3.652296437  -9.031937631
  H   -1.685163606  -5.112135845  -8.066720357
  O   -1.489406948  -2.297491938  -7.055393752
  N    0.864494996  -5.937955869  -8.533183179
  C    0.214406940  -7.121784493  -8.137520959
  C    1.224768662  -8.107734965  -7.959409591
  N    2.467410258  -7.495067095  -8.164845447
  C    2.246279576  -6.190186353  -8.487993379
  N   -1.128639224  -7.335525895  -7.948215481
  C   -1.461838151  -8.585196680  -7.526869762
  N   -0.542454128  -9.643606658  -7.413961308
  C    0.899670409  -9.458844309  -7.539506276
  N   -2.777108051  -8.811402155  -7.103109341
  H   -3.385074883  -7.970755949  -7.120892530
  H   -3.249699638  -9.651883026  -7.423449851
  O    1.616610707 -10.399910141  -7.327072830
  H    2.998995538  -5.423212071  -8.687551412
  H   -0.848894011 -10.566512008  -7.075691949
  P   -1.939375298  -1.982509616  -5.484467335
  O   -2.425952478  -0.410228736  -5.643774558
  C   -1.453549938   0.617307757  -5.409002042
  H   -1.673668217   1.353094376  -6.211818652
  H   -0.411317906   0.259946788  -5.518127886
  C   -1.697630499   1.236231198  -4.020613847
  H   -0.881826486   1.000307769  -3.291350231
  O   -1.586844463   2.690763025  -4.174455607
  C   -2.808300019   3.350830473  -3.826535626
  H   -2.498679279   4.234587948  -3.209781692
  C   -3.107366768   0.957502064  -3.434560496
  H   -3.747864605   0.338071274  -4.112059168
  C   -3.718730565   2.339943563  -3.143178991
  H   -3.732783354   2.494549577  -2.032148530
  H   -4.782800965   2.386051119  -3.435031954
  O   -3.004862343   0.349156399  -2.139644477
  O   -0.753961527  -2.285540046  -4.639136409
  O   -3.357202379  -2.757735623  -5.523676976
  N   -3.371065432   3.867291301  -5.124872087
  C   -2.616289931   4.248182378  -6.228646373
  C   -3.531304735   4.746276094  -7.211697046
  N   -4.838012252   4.668005427  -6.710928116
  C   -4.740940116   4.152572409  -5.484568292
  N   -1.241537511   4.214326020  -6.462510422
  C   -0.814982757   4.711637962  -7.706890559
  N   -1.621969635   5.178573362  -8.645760753
  C   -3.021706040   5.229469467  -8.459544687
  H    0.279623483   4.705125210  -7.906089611
  N   -3.776602803   5.723159015  -9.452512819
  H   -3.360623820   6.061193986 -10.320799310
  H   -4.791540701   5.789277086  -9.361223706
  H   -5.566754941   3.967688085  -4.801828445
  P   -2.571159699  -1.253747171  -2.095951924
  O   -1.018234561  -0.923402938  -1.714710788
  C   -0.047876906  -2.002265891  -1.789379586
  H   -0.058307228  -2.471346333  -2.805916187
  H    0.912536691  -1.476194070  -1.627380876
  C   -0.421316702  -2.956683407  -0.662584133
  H   -0.361064806  -2.482503210   0.349050369
  O   -1.856123255  -3.163494545  -0.895872955
  C   -2.152384265  -4.577966572  -1.108588695
  H   -3.076813290  -4.730664903  -0.494645645
  C    0.241140353  -4.349114538  -0.648335015
  H    0.934685518  -4.524485095  -1.517881524
  C   -0.930318616  -5.347960450  -0.613795729
  H   -0.701899673  -6.264825889  -1.206040434
  H   -1.108683531  -5.733254034   0.415044999
  O    0.998385893  -4.323023344   0.573380096
  O   -2.874895535  -1.908132304  -3.409456384
  O   -3.554549941  -1.666215689  -0.876776104
  N   -2.477147068  -4.798275858  -2.539533972
  C   -1.472627749  -5.088105758  -3.518816654
  N   -1.940460011  -5.570669078  -4.762487087
  C   -3.327849477  -5.676849136  -5.128776246
  C   -4.266654027  -5.099053610  -4.148900914
  C   -3.840744353  -4.702199096  -2.926537853
  O   -0.279273945  -4.978660127  -3.289890744
  H   -1.240833551  -6.053211711  -5.362917754
  O   -3.591093255  -6.228040246  -6.176174573
  C   -5.684001771  -5.002759092  -4.590177124
  H   -6.114666760  -6.005256288  -4.759680677
  H   -6.334989440  -4.487245972  -3.872640989
  H   -5.765106191  -4.468910527  -5.554655195
  H   -4.525802925  -4.290736616  -2.171108250
  P    1.844585802  -5.681930781   0.991107655
  O    3.356730571  -5.143907012   0.673911758
  C    4.320107552  -6.115795309   0.190826997
  H    5.204371061  -5.909136133   0.835087940
  H    3.993364067  -7.167285228   0.341923133
  C    4.631213376  -5.852401650  -1.285214813
  H    5.731736269  -5.939574475  -1.463626088
  O    4.056016647  -6.955283211  -2.045823446
  C    3.333180676  -6.450273772  -3.188338122
  H    3.978638943  -6.634410636  -4.084569259
  C    4.066092494  -4.529423694  -1.875323159
  H    3.673085612  -3.839037909  -1.090522384
  C    3.032026018  -4.971341790  -2.916673258
  H    1.985380910  -4.817518912  -2.562450616
  H    3.074013151  -4.367552918  -3.851818534
  O    5.105224320  -3.752865765  -2.449070267
  O    1.402338212  -6.938956135   0.373754813
  O    1.749087206  -5.563698502   2.604132658
  N    2.095568997  -7.270229208  -3.334736763
  C    1.535881728  -7.372197289  -4.691209897
  N    0.259150317  -7.893114564  -4.825479049
  C   -0.384445275  -8.397865242  -3.727428444
  C    0.231970914  -8.461160194  -2.438722929
  C    1.465822304  -7.875813655  -2.263079647
  O    2.243896924  -7.004590812  -5.612944046
  N   -1.707251220  -8.760939974  -3.915762546
  H   -2.167214255  -9.357957598  -3.244194174
  H   -2.067406434  -8.795119043  -4.861527634
  H    0.812222707  -3.913136611  -5.010622365
  H    1.989689034  -7.871304055  -1.283316167
  H   -0.243867537  -8.976432783  -1.606372017
  H    5.536273516  -4.202833785  -3.207322261
  H   -3.920909213  -2.709004618  -4.664192274
  H   -3.141386936  -1.895444547   0.014768575
  H    2.144777154  -4.755875932   3.044768947
  H    3.358382091  -7.934194244  -7.946996703
  H   -0.613399867   3.837061625  -5.736374743

