%mem=64gb
%nproc=28       
%Chk=snap_80.chk
# opt b3lyp/6-31g(d,p)  scf=(xqc, tight)  pop=min    

tetra snap_80 

2     1 
  O    1.907357844  -4.293822664  -6.705435795
  C    2.145197359  -3.325955604  -7.748042825
  H    2.869814658  -3.739713851  -8.477901514
  H    2.541624651  -2.399889110  -7.291457073
  C    0.775372189  -3.096553463  -8.390082042
  H    0.727791554  -2.120763984  -8.925811509
  O    0.593957798  -4.102666497  -9.445057465
  C   -0.629877560  -4.808263165  -9.278846946
  H   -1.051549917  -4.954504936 -10.302650834
  C   -0.422104277  -3.281520213  -7.418897328
  H   -0.115038702  -3.851839965  -6.506343387
  C   -1.468385331  -4.033780018  -8.259784859
  H   -2.155166024  -3.314350877  -8.756089063
  H   -2.140546843  -4.672607856  -7.648183767
  O   -0.889640233  -1.966731919  -7.090610828
  N   -0.292347387  -6.177375607  -8.725277902
  C   -1.121673960  -7.316579775  -8.803623606
  C   -0.611960306  -8.260003818  -7.862017612
  N    0.513364447  -7.689110472  -7.245414271
  C    0.679079794  -6.443156518  -7.743030203
  N   -2.202083641  -7.527947188  -9.618912932
  C   -2.835231369  -8.727481581  -9.429721825
  N   -2.430190755  -9.690192035  -8.468831350
  C   -1.300501666  -9.490010388  -7.581181720
  N   -3.953543941  -8.986112991 -10.187570980
  H   -4.215081194  -8.327460321 -10.919424499
  H   -4.380460566  -9.900086229 -10.228987459
  O   -1.082462507 -10.325913971  -6.730318592
  H    1.480333082  -5.693330881  -7.412949654
  H   -2.974906202 -10.551637826  -8.325208186
  P   -1.402528808  -1.831191667  -5.507849784
  O   -2.248988411  -0.421453495  -5.720423525
  C   -1.502094662   0.788785925  -5.539278510
  H   -2.007022430   1.485101582  -6.241817974
  H   -0.438173981   0.691687177  -5.831608950
  C   -1.653773952   1.260144499  -4.081722024
  H   -0.792579094   0.969414800  -3.430905978
  O   -1.571320968   2.724518283  -4.104988567
  C   -2.807661978   3.322828612  -3.715061504
  H   -2.522427485   4.171437561  -3.041038502
  C   -3.029420828   0.896067739  -3.463947031
  H   -3.651713047   0.261680359  -4.144516620
  C   -3.692563886   2.241006005  -3.108401978
  H   -3.727860934   2.333526246  -1.990857688
  H   -4.751303026   2.267659419  -3.418362162
  O   -2.869082338   0.263432280  -2.188729175
  O   -0.272278176  -1.826865110  -4.559902206
  O   -2.544053752  -2.990921056  -5.584888876
  N   -3.400239843   3.908490480  -4.972546217
  C   -2.696926179   4.296913328  -6.106262440
  C   -3.654278450   4.828527184  -7.030972061
  N   -4.933120601   4.771261891  -6.461318024
  C   -4.780022771   4.232164489  -5.251056676
  N   -1.337610733   4.245598660  -6.416195730
  C   -0.972147517   4.751607641  -7.676136005
  N   -1.821478963   5.243864944  -8.563923476
  C   -3.206408732   5.320757195  -8.298435206
  H    0.109587279   4.728915348  -7.937655448
  N   -4.009224787   5.843346025  -9.238485876
  H   -3.641331007   6.187936378 -10.125613266
  H   -5.015960241   5.921000049  -9.085742714
  H   -5.569100144   4.058409618  -4.523857984
  P   -2.464810830  -1.343549216  -2.149273755
  O   -1.016965802  -1.066082041  -1.452358836
  C   -0.062710610  -2.161844869  -1.443096903
  H    0.076703412  -2.572941856  -2.473425783
  H    0.873379417  -1.666325984  -1.112451040
  C   -0.634801855  -3.138406573  -0.418445598
  H   -0.772167806  -2.664337395   0.587496475
  O   -2.000367346  -3.345207121  -0.926520190
  C   -2.264574760  -4.756253450  -1.158874604
  H   -3.291769099  -4.892620328  -0.736137106
  C    0.005211852  -4.530995475  -0.274534169
  H    0.835221361  -4.703483168  -1.014422138
  C   -1.161161845  -5.525342147  -0.431772367
  H   -0.837668383  -6.456293144  -0.943207434
  H   -1.514180219  -5.860420903   0.569198950
  O    0.475637078  -4.570454440   1.088188414
  O   -2.527753223  -1.977269969  -3.501667958
  O   -3.646676518  -1.797153697  -1.132174396
  N   -2.298694325  -5.015668935  -2.624566833
  C   -1.098834835  -5.261511025  -3.368098105
  N   -1.265657898  -5.791237475  -4.665291961
  C   -2.531370497  -5.994525143  -5.311229427
  C   -3.699854061  -5.547055347  -4.531864860
  C   -3.563318480  -5.098109773  -3.259996020
  O    0.013163516  -5.072093748  -2.908888399
  H   -0.403932554  -6.106348918  -5.140765558
  O   -2.512196877  -6.497458301  -6.415766066
  C   -5.012213930  -5.592919117  -5.231640005
  H   -5.257046248  -4.616102545  -5.682845244
  H   -5.007541079  -6.323956161  -6.059796165
  H   -5.843821388  -5.872918204  -4.569401629
  H   -4.423512128  -4.764292215  -2.661092277
  P    1.745669407  -5.591927797   1.353627523
  O    2.956247677  -4.555686407   1.017831950
  C    4.254618544  -5.130678407   0.705237130
  H    4.923507918  -4.661825127   1.462735869
  H    4.291458061  -6.234879735   0.807637136
  C    4.630818856  -4.701344222  -0.715924347
  H    5.720004629  -4.457322540  -0.769491694
  O    4.489135507  -5.866588221  -1.581888490
  C    3.698365895  -5.539017756  -2.741515643
  H    4.410072481  -5.469780107  -3.603442825
  C    3.752921132  -3.563975332  -1.310157410
  H    3.128816653  -3.051961726  -0.537004250
  C    2.948006164  -4.239215945  -2.427852270
  H    1.897004729  -4.445775498  -2.109330611
  H    2.829921319  -3.589203751  -3.316393724
  O    4.553558458  -2.496968495  -1.786937438
  O    1.709521758  -6.867266725   0.611510594
  O    1.767342012  -5.652321795   2.974226664
  N    2.783550278  -6.695100717  -2.992544882
  C    2.281062123  -6.847568612  -4.349974441
  N    1.387068923  -7.868341577  -4.613310561
  C    1.027517625  -8.753456144  -3.621830341
  C    1.539468383  -8.615460814  -2.290556085
  C    2.409144518  -7.592651198  -2.000250940
  O    2.670550544  -6.066342334  -5.208217449
  N    0.129760549  -9.723489035  -3.976197557
  H   -0.096404722 -10.482473325  -3.350154059
  H   -0.160607446  -9.838679853  -4.949471584
  H    2.715756873  -4.488882956  -6.158754536
  H    2.844019505  -7.450921702  -0.989513544
  H    1.254821668  -9.314995804  -1.505223072
  H    5.164051453  -2.771708005  -2.504556521
  H   -3.006406585  -3.203743084  -4.695719125
  H   -3.395413653  -2.067875090  -0.196904374
  H    1.349223490  -6.439387528   3.427765294
  H    1.025324390  -8.101165366  -6.427995193
  H   -0.674157704   3.864305754  -5.723652007

