%mem=64gb
%nproc=28       
%Chk=snap_163.chk
# opt b3lyp/6-31g(d,p)  scf=(xqc, tight)  pop=min    

tetra snap_163 

2     1 
  O    1.525785879  -2.102431285  -5.198826312
  C    1.158598356  -3.303216594  -5.864371455
  H    0.849495325  -4.074413560  -5.134440256
  H    2.110359446  -3.628567575  -6.344416664
  C    0.089355710  -3.003580942  -6.927564616
  H    0.088786537  -1.917879747  -7.181780515
  O    0.519683586  -3.649499526  -8.175810712
  C   -0.490531775  -4.491636519  -8.705559459
  H   -0.485781182  -4.352795202  -9.813089687
  C   -1.341508623  -3.533197132  -6.643632304
  H   -1.391262505  -4.228875545  -5.780714794
  C   -1.791180482  -4.193086928  -7.956469450
  H   -2.440851108  -3.492422506  -8.529481172
  H   -2.436470831  -5.084964828  -7.798291097
  O   -2.248300794  -2.427291241  -6.452556659
  N   -0.042144445  -5.910623907  -8.417604165
  C   -0.789312676  -7.082366993  -8.672546432
  C   -0.183106623  -8.120519846  -7.903466661
  N    0.930740953  -7.583405031  -7.245550968
  C    0.994185495  -6.260502041  -7.529449628
  N   -1.867468300  -7.238301383  -9.495399639
  C   -2.420856491  -8.497808574  -9.474714385
  N   -1.921074502  -9.566236195  -8.687564526
  C   -0.789056629  -9.422609993  -7.790248385
  N   -3.527077771  -8.712095979 -10.255474131
  H   -3.873441771  -7.961573534 -10.849995503
  H   -3.955960079  -9.619033145 -10.364590497
  O   -0.498522334 -10.344499632  -7.062787504
  H    1.753364276  -5.554873216  -7.146519933
  H   -2.409033829 -10.472681435  -8.659838188
  P   -2.396556178  -1.853054275  -4.913024617
  O   -3.099412485  -0.415777693  -5.280754274
  C   -2.282459142   0.470881126  -6.078990865
  H   -2.995493480   1.298859019  -6.284334190
  H   -2.013811102  -0.007809058  -7.043102200
  C   -1.049188136   0.965306335  -5.307103661
  H   -0.145154493   0.314105114  -5.432914828
  O   -0.646826358   2.230582139  -5.926152381
  C   -0.699337723   3.301987875  -4.980496797
  H    0.206786339   3.925188893  -5.189906399
  C   -1.317224603   1.267134892  -3.807359662
  H   -2.397648557   1.160111845  -3.535031943
  C   -0.789975022   2.696486474  -3.587488575
  H    0.225512538   2.632135550  -3.114936362
  H   -1.387017774   3.264635872  -2.854249862
  O   -0.455342375   0.415437096  -3.036076059
  O   -1.006910598  -1.775350979  -4.292858547
  O   -3.456335267  -2.876283162  -4.257028947
  N   -1.916876830   4.101398304  -5.357122044
  C   -2.244739256   4.473503243  -6.657807081
  C   -3.433888087   5.266778610  -6.578264017
  N   -3.841433553   5.361076586  -5.240176161
  C   -2.950943076   4.671450311  -4.526396851
  N   -1.624603990   4.208772874  -7.878550388
  C   -2.214720612   4.801655552  -9.011057974
  N   -3.303262356   5.552466805  -8.984061738
  C   -3.981172364   5.830450266  -7.776087489
  H   -1.717294226   4.626461170  -9.991725507
  N   -5.079444589   6.598592332  -7.823477252
  H   -5.427219708   6.981230263  -8.703702410
  H   -5.593296495   6.835494600  -6.972926182
  H   -2.958867548   4.539742439  -3.447075171
  P   -1.232772708  -0.808476121  -2.240874329
  O   -0.008223041  -1.809672536  -1.864163758
  C   -0.187733105  -3.228329023  -2.055966405
  H   -0.661250547  -3.462593407  -3.029519665
  H    0.877858599  -3.575340488  -2.096342800
  C   -0.951261149  -3.832095063  -0.877150196
  H   -1.012848665  -3.150661530   0.005674369
  O   -2.339314265  -4.014734422  -1.297456896
  C   -2.682220731  -5.401370547  -1.343944268
  H   -3.737259519  -5.443592455  -0.978649035
  C   -0.426657719  -5.234600329  -0.465106717
  H    0.372403159  -5.619280637  -1.148730268
  C   -1.663938980  -6.149057255  -0.481722886
  H   -1.423183806  -7.168489182  -0.840118887
  H   -2.051631744  -6.286482578   0.553258449
  O    0.038003342  -5.090995581   0.893133526
  O   -2.596049723  -1.190903269  -2.768107672
  O   -1.418151010  -0.109722007  -0.775081632
  N   -2.668231602  -5.823988638  -2.793917076
  C   -1.455810900  -6.092749680  -3.486902892
  N   -1.572138460  -6.593847331  -4.805749700
  C   -2.808862533  -6.710417186  -5.524663948
  C   -3.988305405  -6.236624898  -4.792119146
  C   -3.896353410  -5.839452163  -3.498048661
  O   -0.346729291  -5.902426617  -3.013962533
  H   -0.694720465  -6.948067004  -5.221238149
  O   -2.745493756  -7.141123319  -6.659530691
  C   -5.269195633  -6.187673196  -5.548927550
  H   -5.466371617  -5.167908866  -5.921564504
  H   -5.253962519  -6.853589557  -6.428142148
  H   -6.135206900  -6.488446963  -4.940782617
  H   -4.777428787  -5.502972158  -2.932632635
  P    1.498097739  -5.797140945   1.181352973
  O    2.500227701  -4.632523071   0.621220337
  C    3.920782887  -4.962660930   0.663164637
  H    4.325843773  -4.327128950   1.484013682
  H    4.117269430  -6.032926894   0.882914386
  C    4.529919062  -4.570925627  -0.684312118
  H    5.618574598  -4.344793860  -0.554666042
  O    4.532620123  -5.736725657  -1.560411010
  C    3.857683399  -5.463590270  -2.797638296
  H    4.633449060  -5.569330514  -3.597988323
  C    3.786254393  -3.428186443  -1.426798445
  H    3.012206804  -2.935969654  -0.787316983
  C    3.220473699  -4.076893151  -2.698879138
  H    2.108567972  -4.133411648  -2.653771808
  H    3.411247656  -3.457787319  -3.602981448
  O    4.667667343  -2.354582788  -1.696768172
  O    1.697043242  -7.136895735   0.599815613
  O    1.615913296  -5.624831469   2.792320731
  N    2.851846603  -6.569836787  -3.000282243
  C    2.235139987  -6.685357388  -4.308767558
  N    1.515394547  -7.832646434  -4.607033734
  C    1.288644219  -8.783305654  -3.639671677
  C    1.808521407  -8.621082343  -2.315829857
  C    2.606489484  -7.539668500  -2.032063420
  O    2.375602086  -5.778410246  -5.124014255
  N    0.511164450  -9.848439247  -4.017717098
  H    0.414451236 -10.658444212  -3.421491061
  H    0.243993298  -9.974547531  -4.993090390
  H    0.813373489  -1.818283848  -4.563244601
  H    3.082170557  -7.404503363  -1.039747731
  H    1.583155571  -9.339374717  -1.525435703
  H    5.372197909  -2.589492365  -2.339029336
  H   -3.487336322  -2.823741824  -3.212061018
  H   -0.641671621  -0.104089611  -0.152701344
  H    1.205518150  -6.317273337   3.383194289
  H    1.458178363  -8.067242889  -6.480741943
  H   -0.816454404   3.573488841  -7.918871444

