%mem=64gb
%nproc=28       
%Chk=snap_59.chk
# opt b3lyp/6-31g(d,p)  scf=(xqc, tight)  pop=min    

tetra snap_59 

2     1 
  O    0.907092382  -5.097707444  -5.714042092
  C    1.200634391  -3.793124134  -6.227456778
  H    2.264559693  -3.771057050  -6.534754659
  H    1.049635511  -3.135204358  -5.333256283
  C    0.295658143  -3.366505313  -7.382292938
  H    0.551019691  -2.331036503  -7.717812343
  O    0.589289703  -4.196592861  -8.549802462
  C   -0.594459805  -4.799758187  -9.075522678
  H   -0.495324382  -4.738144028 -10.190366542
  C   -1.227815119  -3.508450728  -7.128917218
  H   -1.456883106  -4.177792212  -6.273756939
  C   -1.788943112  -4.096652422  -8.435965142
  H   -2.168260369  -3.273158697  -9.084687001
  H   -2.675394612  -4.738443488  -8.269024725
  O   -1.791549256  -2.205304862  -6.933905929
  N   -0.498871317  -6.259478571  -8.703595048
  C    0.352396067  -7.178164288  -9.362547693
  C    0.478409445  -8.312362340  -8.506318762
  N   -0.288331915  -8.071449683  -7.356557848
  C   -0.867621030  -6.855463864  -7.478169770
  N    0.921612233  -7.042365027 -10.594347126
  C    1.682179224  -8.117558915 -10.998153934
  N    1.888457848  -9.262858807 -10.199988787
  C    1.290963828  -9.447264210  -8.875399480
  N    2.261571402  -8.045432310 -12.237116549
  H    2.119230599  -7.217175506 -12.811953945
  H    2.822642446  -8.787585213 -12.627794867
  O    1.537325062 -10.469169684  -8.292864938
  H   -1.598863404  -6.417312717  -6.738149699
  H    2.477985207 -10.039515895 -10.534296559
  P   -1.945010431  -1.793230654  -5.317696839
  O   -2.775428752  -0.378625430  -5.539456852
  C   -1.988389512   0.820859393  -5.578648957
  H   -2.596082741   1.479690128  -6.234748572
  H   -0.995481818   0.667739220  -6.043911605
  C   -1.873186268   1.396668997  -4.155638997
  H   -0.899786160   1.158070617  -3.661432887
  O   -1.818924910   2.855165764  -4.276894880
  C   -3.006281154   3.465582661  -3.766560530
  H   -2.650931537   4.354140128  -3.182701163
  C   -3.099934694   1.068897855  -3.265778078
  H   -3.791266617   0.322935283  -3.733527152
  C   -3.787923894   2.418213914  -2.983424948
  H   -3.737693866   2.618150795  -1.881594329
  H   -4.867524631   2.373340706  -3.209546615
  O   -2.665967748   0.626871109  -1.973841871
  O   -0.611701427  -1.716815622  -4.684983617
  O   -3.127327619  -2.855295024  -4.980585735
  N   -3.746925559   3.970859162  -4.978337652
  C   -3.150904316   4.374694225  -6.168113505
  C   -4.197327936   4.859605047  -7.017773459
  N   -5.425409213   4.747210815  -6.351840997
  C   -5.157192012   4.225681843  -5.153533785
  N   -1.818873956   4.366185721  -6.582274452
  C   -1.568454539   4.885073847  -7.864482355
  N   -2.500208792   5.351202231  -8.681110896
  C   -3.863606033   5.371635604  -8.312826965
  H   -0.510070171   4.897601688  -8.208517226
  N   -4.749997160   5.865149906  -9.191004675
  H   -4.456479281   6.228839816 -10.098095436
  H   -5.745775950   5.903908831  -8.970266716
  H   -5.882352150   4.015726421  -4.371112196
  P   -2.211075988  -0.962431590  -1.812699573
  O   -0.681440149  -0.592151038  -1.390262112
  C    0.305855250  -1.658377663  -1.425876965
  H    0.302644322  -2.167086849  -2.421353828
  H    1.260159552  -1.109518954  -1.292613117
  C   -0.044745881  -2.559977533  -0.242893563
  H    0.033208474  -2.037177235   0.740615054
  O   -1.490939863  -2.766314216  -0.447820788
  C   -1.810211672  -4.182081447  -0.529218888
  H   -2.743974947  -4.265819014   0.079246808
  C    0.598076668  -3.959337686  -0.179145150
  H    1.215453305  -4.191788589  -1.083707023
  C   -0.593087478  -4.918403337   0.023118404
  H   -0.420021667  -5.909973672  -0.450948272
  H   -0.735212173  -5.158532841   1.100825092
  O    1.465312369  -3.939846244   0.974250226
  O   -2.482792625  -1.734651739  -3.063866451
  O   -3.209086049  -1.300346553  -0.576109568
  N   -2.105421759  -4.547500678  -1.943772650
  C   -1.055080800  -4.675733118  -2.906877004
  N   -1.404056391  -5.228768269  -4.150751448
  C   -2.719706642  -5.635279970  -4.526964260
  C   -3.753562567  -5.415225204  -3.502121947
  C   -3.433946472  -4.896894210  -2.289952412
  O    0.099203585  -4.353887597  -2.679651734
  H   -0.583259775  -5.403932970  -4.807447270
  O   -2.865569299  -6.090483181  -5.651478349
  C   -5.145017132  -5.762551402  -3.894649284
  H   -5.850247883  -5.776088117  -3.053554936
  H   -5.532812959  -5.044843489  -4.640482220
  H   -5.191767758  -6.755322033  -4.375025873
  H   -4.192501095  -4.719823281  -1.515098539
  P    2.357990838  -5.326299778   1.149803533
  O    3.585535218  -4.986198344   0.113639774
  C    4.451972048  -6.104523141  -0.224673430
  H    5.442031805  -5.786316892   0.174589901
  H    4.141434459  -7.059742807   0.252191528
  C    4.506621196  -6.266175094  -1.744903318
  H    5.532985280  -6.599992226  -2.041350504
  O    3.655946717  -7.394598040  -2.107942437
  C    2.861386823  -7.081538018  -3.267183490
  H    3.260543107  -7.708182249  -4.103326534
  C    4.047915392  -5.043960837  -2.584782321
  H    3.747440439  -4.174375696  -1.953242249
  C    2.932072810  -5.571455962  -3.493226385
  H    1.956652339  -5.069538909  -3.291848333
  H    3.106544512  -5.325912260  -4.559460039
  O    5.137201894  -4.508588310  -3.318996687
  O    1.672599867  -6.602205601   0.901327770
  O    2.957338122  -5.063849748   2.631549033
  N    1.466094936  -7.557539685  -2.970508077
  C    0.560002972  -7.744977816  -4.095294356
  N   -0.724725409  -8.191899206  -3.854514309
  C   -1.129821824  -8.433533731  -2.568524425
  C   -0.237303752  -8.283187953  -1.457588632
  C    1.052141263  -7.861603620  -1.683001040
  O    0.963859398  -7.485117531  -5.228527180
  N   -2.463608712  -8.739070960  -2.385634770
  H   -2.766663452  -9.165605713  -1.520864227
  H   -3.037599779  -8.944344092  -3.196624233
  H    0.993286658  -5.788931983  -6.409236779
  H    1.792195742  -7.747788057  -0.859640476
  H   -0.548517259  -8.537578680  -0.444232948
  H    5.511639032  -5.146500306  -3.963316440
  H   -3.367632898  -2.958164457  -3.988239461
  H   -2.815853199  -1.393865462   0.343605187
  H    3.272582757  -4.140111448   2.858391980
  H   -0.274927237  -8.638033925  -6.497025212
  H   -1.094989207   3.985923576  -5.951315094

