%mem=64gb
%nproc=28       
%Chk=snap_13.chk
# opt b3lyp/6-31g(d,p)  scf=(xqc, tight)  pop=min    

tetra snap_13 

2     1 
  O    2.357179238  -3.575082923  -7.923871523
  C    2.204962700  -2.425778562  -8.774657140
  H    2.983086949  -2.584142894  -9.554825147
  H    2.448889748  -1.521019260  -8.180826427
  C    0.817112261  -2.315511807  -9.409364872
  H    0.659382971  -1.301585037  -9.850723220
  O    0.779101979  -3.222545324 -10.567050661
  C   -0.364473756  -4.061964802 -10.519154814
  H   -0.713881862  -4.187070141 -11.573102669
  C   -0.384525960  -2.742517420  -8.529289113
  H   -0.067315576  -3.464574348  -7.726263208
  C   -1.337405064  -3.443316868  -9.507130573
  H   -2.020807028  -2.708562830  -9.986002650
  H   -2.004058011  -4.172590333  -9.011241346
  O   -1.023623792  -1.556660435  -8.000822601
  N    0.096672923  -5.417213706 -10.023354422
  C   -0.500190049  -6.653585378 -10.352945729
  C    0.155395125  -7.646240424  -9.573154964
  N    1.138144814  -6.997784591  -8.794159438
  C    1.089212380  -5.670426280  -9.063072578
  N   -1.514172588  -6.877315452 -11.242675837
  C   -1.880166137  -8.196998435 -11.371549778
  N   -1.288259767  -9.242592673 -10.629262196
  C   -0.214407282  -9.037563762  -9.656315626
  N   -2.900629378  -8.485981185 -12.242460171
  H   -3.287548900  -7.742641916 -12.821309139
  H   -3.172755853  -9.430913042 -12.472695584
  O    0.197833746 -10.002070245  -9.067290553
  H    1.747871600  -4.820664633  -8.572620077
  H   -1.606082589 -10.216505810 -10.743754566
  P   -0.789391057  -1.471390193  -6.369037465
  O   -1.391577047   0.032650178  -6.043951030
  C   -0.773523126   0.678950622  -4.900466498
  H   -0.445485057   1.667482185  -5.295914104
  H    0.124562071   0.134411722  -4.525792076
  C   -1.818052028   0.868816117  -3.793002375
  H   -1.372727176   0.700827921  -2.780447493
  O   -2.124940575   2.298249212  -3.730634497
  C   -3.463607541   2.560767059  -4.120659868
  H   -3.839049830   3.318779900  -3.394530333
  C   -3.168974699   0.129560174  -3.991281833
  H   -3.182309697  -0.576917279  -4.854195230
  C   -4.228286169   1.238000499  -4.134799666
  H   -4.931543723   1.169476187  -3.266354252
  H   -4.870381423   1.092409156  -5.022879959
  O   -3.575494104  -0.573244498  -2.805004458
  O    0.607509347  -1.723004937  -5.943096528
  O   -1.938944746  -2.474249659  -5.851169192
  N   -3.395318884   3.185415726  -5.486132926
  C   -3.497290489   4.538009020  -5.802618111
  C   -3.258289906   4.651687606  -7.211369688
  N   -2.972566224   3.384653286  -7.743039269
  C   -3.038905838   2.528947496  -6.724470145
  N   -3.788652885   5.666614210  -5.034565676
  C   -3.835715915   6.896916399  -5.723718314
  N   -3.631005484   7.039935567  -7.020605129
  C   -3.329770946   5.932934088  -7.844030413
  H   -4.065829571   7.804130756  -5.118916859
  N   -3.134251103   6.148980191  -9.154221738
  H   -3.192595053   7.085463269  -9.555483255
  H   -2.914358410   5.378123707  -9.785597808
  H   -2.839684454   1.452298730  -6.762875820
  P   -2.644259239  -1.848852824  -2.305938769
  O   -2.051191986  -1.089388135  -0.986831137
  C   -0.831940466  -1.634047333  -0.424891848
  H   -0.020112196  -1.640950118  -1.189995586
  H   -0.583971611  -0.905932566   0.376108230
  C   -1.163430234  -3.023140581   0.114824028
  H   -1.842808681  -3.009064052   1.000299510
  O   -1.963300665  -3.636334872  -0.957269917
  C   -1.381292286  -4.912310889  -1.387623891
  H   -2.259328505  -5.607236084  -1.359022869
  C    0.057107858  -3.936077912   0.344988794
  H    1.015647816  -3.472112908  -0.001988477
  C   -0.270432540  -5.240687293  -0.395040585
  H    0.644307268  -5.662556209  -0.880087603
  H   -0.596531706  -6.021845688   0.325751536
  O    0.056735098  -4.189388238   1.768415022
  O   -1.648902384  -2.217992651  -3.362474840
  O   -3.875363695  -2.853894245  -2.000199367
  N   -0.905053468  -4.768017730  -2.787490678
  C    0.239288514  -3.959065804  -3.097710746
  N    0.688081475  -4.015351541  -4.440491763
  C    0.123929023  -4.845787963  -5.442150756
  C   -1.043141146  -5.625272779  -5.053375300
  C   -1.502995128  -5.585777102  -3.773934776
  O    0.825458311  -3.289823539  -2.266983038
  H    1.416567182  -3.321407938  -4.714727718
  O    0.651804258  -4.818852224  -6.557751946
  C   -1.668909366  -6.489833160  -6.093744605
  H   -1.118607024  -6.446154606  -7.044652409
  H   -1.676139614  -7.546189418  -5.776461855
  H   -2.705164245  -6.189186163  -6.302644769
  H   -2.352337702  -6.204726932  -3.442535479
  P    1.539640705  -4.478504282   2.419722018
  O    2.177997980  -5.445260996   1.241774279
  C    2.687167027  -6.742489294   1.639972198
  H    3.216796301  -6.680662175   2.612639687
  H    1.821985300  -7.430690313   1.731484009
  C    3.625470686  -7.190503600   0.508813679
  H    4.622948347  -7.497289753   0.900966179
  O    3.104309364  -8.430018998  -0.055154785
  C    2.457047590  -8.200044969  -1.317779601
  H    2.855732290  -8.991490865  -1.996847130
  C    3.736148986  -6.198785666  -0.679801404
  H    3.530982405  -5.137137192  -0.395403450
  C    2.760367755  -6.755852567  -1.732030301
  H    1.844596055  -6.121055286  -1.775410009
  H    3.177844910  -6.696534305  -2.755586030
  O    5.067182332  -6.129174021  -1.155243090
  O    1.596277882  -4.941247774   3.799338262
  O    2.261166134  -3.066840913   1.991121096
  N    0.986701288  -8.465593467  -1.094975235
  C   -0.011094592  -7.971413503  -2.056649883
  N   -1.350454692  -8.121865596  -1.735039180
  C   -1.717923498  -8.846289106  -0.635960820
  C   -0.746244293  -9.434628983   0.245615751
  C    0.585815468  -9.228249273  -0.007152761
  O    0.400801160  -7.406584829  -3.054106780
  N   -3.066088639  -8.931737681  -0.374802376
  H   -3.416078320  -9.557447910   0.335312356
  H   -3.735492779  -8.617203478  -1.064147254
  H    1.800827133  -3.463024596  -7.084891332
  H    1.380315034  -9.649489577   0.636006171
  H   -1.062003871 -10.040286104   1.092642716
  H    5.398657390  -6.994991487  -1.480327908
  H   -1.926799767  -2.735122491  -4.817268035
  H   -3.896147135  -3.321130671  -1.102803376
  H    3.009709021  -2.724161808   2.544871381
  H    1.738256437  -7.472580865  -8.126810868
  H   -3.915607414   5.609187992  -4.021389929

