%mem=64gb
%nproc=28       
%Chk=snap_43.chk
# opt b3lyp/6-31g(d,p)  scf=(xqc, tight)  pop=min    

tetra snap_43 

2     1 
  O    1.183206786  -4.139124330  -6.717422583
  C    1.432834270  -3.356720378  -7.885509339
  H    1.951054878  -4.062366404  -8.569895849
  H    2.117174436  -2.526109949  -7.634321650
  C    0.134501262  -2.843313412  -8.528413118
  H    0.167817678  -1.752678618  -8.750888046
  O    0.041386240  -3.451101058  -9.857569089
  C   -1.086230027  -4.308015386  -9.945261793
  H   -1.419668539  -4.269187013 -11.012713129
  C   -1.170009174  -3.236801292  -7.787151837
  H   -0.974274188  -3.961432665  -6.965605269
  C   -2.069851578  -3.865359731  -8.867047904
  H   -2.772426129  -3.090257505  -9.255671564
  H   -2.735068514  -4.655876019  -8.470437875
  O   -1.787325289  -2.033435137  -7.320053161
  N   -0.555941540  -5.711269097  -9.704214147
  C    0.310824612  -6.379182096 -10.604847742
  C    0.811335078  -7.525258139  -9.922199025
  N    0.254124076  -7.532724544  -8.631095606
  C   -0.549095116  -6.444870470  -8.506602387
  N    0.600313649  -6.034576991 -11.891204312
  C    1.478784456  -6.880043833 -12.533093665
  N    2.041044100  -8.022550624 -11.921362334
  C    1.743634207  -8.432101264 -10.550742290
  N    1.817032526  -6.569075874 -13.822419751
  H    1.406609223  -5.748187666 -14.265230930
  H    2.432670482  -7.137047944 -14.385954812
  O    2.283380659  -9.419033313 -10.125261818
  H   -1.161011304  -6.184887152  -7.588054092
  H    2.711148634  -8.618416209 -12.430331703
  P   -1.714172731  -1.845189345  -5.662136771
  O   -2.185009724  -0.258980118  -5.676896881
  C   -1.110817817   0.687791366  -5.469513951
  H   -1.175401461   1.378302312  -6.339632649
  H   -0.104249133   0.214719605  -5.459771721
  C   -1.383212433   1.431417467  -4.155877018
  H   -0.498159899   1.418991772  -3.469840115
  O   -1.522017111   2.851759421  -4.483342481
  C   -2.801788531   3.342539440  -4.111826919
  H   -2.617170856   4.351932973  -3.679333651
  C   -2.690754497   1.010098080  -3.428211834
  H   -3.313025222   0.280933534  -4.006877216
  C   -3.443887844   2.325791249  -3.169066194
  H   -3.301583465   2.616658514  -2.098074431
  H   -4.537958037   2.218352839  -3.284036122
  O   -2.381759971   0.472523015  -2.138169076
  O   -0.349220425  -2.158802728  -5.167018590
  O   -3.032406739  -2.728148211  -5.332846101
  N   -3.584884901   3.495723036  -5.389694333
  C   -3.884687708   4.679572807  -6.059545858
  C   -4.515082428   4.310635523  -7.293613894
  N   -4.571108239   2.912019454  -7.390946643
  C   -4.011265576   2.437035273  -6.279316214
  N   -3.700515418   6.022382178  -5.725363514
  C   -4.159978942   6.969781622  -6.664246694
  N   -4.745916566   6.669042132  -7.808903472
  C   -4.958271920   5.327684342  -8.197263167
  H   -4.013047502   8.043739960  -6.407308714
  N   -5.552079036   5.099702221  -9.379144474
  H   -5.845660380   5.867651211  -9.984146425
  H   -5.731439628   4.149778012  -9.705025402
  H   -3.858558203   1.382268990  -6.030207783
  P   -1.803210162  -1.089997251  -2.137806829
  O   -0.251717833  -0.618818046  -1.944396438
  C    0.791895259  -1.624997856  -2.037792039
  H    0.739927861  -2.156719206  -3.020983504
  H    1.719214878  -1.021129746  -1.987711053
  C    0.583127917  -2.522399420  -0.821249083
  H    0.642251984  -1.964037292   0.145481087
  O   -0.833661125  -2.890018381  -0.954115286
  C   -0.985751404  -4.331815850  -1.126943939
  H   -1.857900728  -4.576412268  -0.468564803
  C    1.393385325  -3.833470452  -0.744020983
  H    2.118375660  -3.957481915  -1.588233905
  C    0.340050667  -4.948010999  -0.692204906
  H    0.659135821  -5.799960070  -1.346326419
  H    0.206047961  -5.406239558   0.324284389
  O    2.201445960  -3.678623223   0.437243082
  O   -2.150384368  -1.795797314  -3.412544715
  O   -2.641109165  -1.538721830  -0.827388648
  N   -1.340317419  -4.602555908  -2.546116586
  C   -0.318244647  -4.695489788  -3.541680586
  N   -0.715170717  -5.217755771  -4.795421385
  C   -2.036209465  -5.642300175  -5.125264993
  C   -3.020735979  -5.512232681  -4.050392418
  C   -2.654077369  -5.051371263  -2.826127782
  O    0.835823047  -4.352008022  -3.351049847
  H    0.037290564  -5.285358050  -5.509997480
  O   -2.208992903  -6.036532828  -6.274878910
  C   -4.411769811  -5.939012341  -4.364015824
  H   -5.113693057  -5.777747943  -3.535243444
  H   -4.806126980  -5.404149300  -5.244048250
  H   -4.447322484  -7.017160925  -4.602239622
  H   -3.364292093  -4.997546925  -1.987970802
  P    2.550249450  -4.984231358   1.381514560
  O    3.504510895  -5.826513534   0.338600023
  C    3.833103885  -7.181071575   0.755936094
  H    4.870451105  -7.112297309   1.149867494
  H    3.150521595  -7.563556720   1.545990713
  C    3.767390470  -8.088963712  -0.477158988
  H    4.650295825  -8.774301021  -0.501478786
  O    2.652428292  -9.013091180  -0.317244923
  C    1.606746738  -8.763542052  -1.270530804
  H    1.399582088  -9.757788168  -1.737384088
  C    3.557625863  -7.362200232  -1.829420889
  H    3.778242499  -6.268000465  -1.778001666
  C    2.110481285  -7.684852687  -2.236144145
  H    1.477045346  -6.768072491  -2.218376927
  H    2.051003564  -8.020057027  -3.289894044
  O    4.496437897  -7.808827147  -2.793391354
  O    1.445947915  -5.752477750   1.965139182
  O    3.573279807  -4.241588993   2.399126989
  N    0.384019461  -8.350201795  -0.491325503
  C   -0.780199832  -7.793173703  -1.204148605
  N   -1.874502220  -7.403722280  -0.455759139
  C   -1.909585576  -7.643857920   0.891361971
  C   -0.807682012  -8.248417923   1.585060334
  C    0.321925777  -8.573007590   0.879491725
  O   -0.670202478  -7.643182968  -2.410724069
  N   -3.032450034  -7.214026379   1.562308021
  H   -3.183479892  -7.468538459   2.527323495
  H   -3.846610591  -6.914659286   1.043191673
  H    1.028533885  -3.548059712  -5.917828593
  H    1.207967791  -9.018440940   1.362762246
  H   -0.848993353  -8.414022076   2.660291068
  H    4.423453214  -8.771360011  -2.973897594
  H   -3.188591596  -2.939902987  -4.338428129
  H   -2.137734029  -1.776797412   0.013982345
  H    4.191706352  -3.550718350   2.022300098
  H    0.429531218  -8.258385356  -7.941906429
  H   -3.231688307   6.301960338  -4.860738308

