%mem=64gb
%nproc=28       
%Chk=snap_176.chk
# opt b3lyp/6-31g(d,p)  scf=(xqc, tight)  pop=min    

tetra snap_176 

2     1 
  O    0.675316906  -1.659029416  -6.148873628
  C    0.686634130  -2.767427780  -7.038898546
  H    0.862774843  -3.705834858  -6.467627433
  H    1.570949976  -2.572976928  -7.685162880
  C   -0.597899300  -2.817986692  -7.879568102
  H   -0.785480434  -1.859107500  -8.415784232
  O   -0.340292873  -3.791102538  -8.947844504
  C   -1.297442424  -4.839469959  -8.938473260
  H   -1.523092905  -5.074285456 -10.008338513
  C   -1.871405234  -3.309343471  -7.146203404
  H   -1.655139696  -3.694537191  -6.121075425
  C   -2.466506411  -4.391785049  -8.057260914
  H   -3.288467096  -3.953770822  -8.673955648
  H   -2.951972180  -5.215383332  -7.501315464
  O   -2.822845204  -2.205984610  -7.131084574
  N   -0.599172352  -6.046323599  -8.342888999
  C   -1.093576081  -7.365775233  -8.283481117
  C   -0.123031614  -8.128529338  -7.566212041
  N    0.935617748  -7.279630976  -7.221288466
  C    0.644258204  -6.040010810  -7.674168421
  N   -2.278428673  -7.851547864  -8.749701743
  C   -2.469162146  -9.202986421  -8.532301007
  N   -1.523200047 -10.034852591  -7.885006662
  C   -0.296292436  -9.535294715  -7.302353716
  N   -3.615159031  -9.764793549  -9.025282402
  H   -4.303738467  -9.174246802  -9.488571522
  H   -3.920450414 -10.691184034  -8.754167124
  O    0.394592159 -10.278153645  -6.644032742
  H    1.281780829  -5.148469347  -7.548678160
  H   -1.774605245 -11.007957345  -7.641246845
  P   -3.013468949  -1.529086542  -5.642805303
  O   -3.227841780   0.078434198  -5.851318033
  C   -2.091609727   0.910294902  -6.158932382
  H   -2.556865392   1.921609549  -6.116783430
  H   -1.766223303   0.710350480  -7.201475110
  C   -0.918180189   0.788433740  -5.174412502
  H   -0.224882817  -0.061314109  -5.449253321
  O   -0.080482194   1.970535162  -5.379008146
  C    0.234651283   2.614786715  -4.135212947
  H    1.356819554   2.621592280  -4.080856814
  C   -1.288887900   0.754505397  -3.673651866
  H   -2.389788683   0.847235753  -3.493915299
  C   -0.481462522   1.879324229  -3.006789155
  H    0.246546099   1.435749661  -2.279191770
  H   -1.134470600   2.518251808  -2.382137133
  O   -0.740249174  -0.463205190  -3.121970141
  O   -1.705778716  -1.854058808  -4.918771267
  O   -4.450581224  -2.098576163  -5.224745265
  N   -0.231057291   4.033241573  -4.285964251
  C   -0.391900479   4.726411986  -5.480265330
  C   -0.682970846   6.086563782  -5.136092853
  N   -0.699786354   6.222031842  -3.740991268
  C   -0.427821730   5.016922623  -3.242648753
  N   -0.311621894   4.313227213  -6.809258901
  C   -0.498602838   5.316109900  -7.779736182
  N   -0.760014690   6.584120926  -7.509350937
  C   -0.864000586   7.050656553  -6.179754076
  H   -0.422694225   5.007075539  -8.846313331
  N   -1.113869871   8.352961185  -5.977615129
  H   -1.220730890   9.005320775  -6.755911564
  H   -1.197072966   8.731679846  -5.032470882
  H   -0.344093767   4.761064878  -2.189615735
  P   -1.862116268  -1.622012173  -2.752037563
  O   -1.097888662  -3.063838922  -2.950704736
  C   -2.000442790  -4.201849779  -2.961856221
  H   -2.998546405  -3.980388491  -3.383834294
  H   -1.479657060  -4.920569498  -3.637030289
  C   -2.082676785  -4.710508052  -1.515358015
  H   -2.517744719  -3.965454228  -0.803280083
  O   -3.024920451  -5.807162145  -1.480660837
  C   -2.389783520  -7.029474337  -1.065919603
  H   -3.075327158  -7.449292394  -0.287188783
  C   -0.718748048  -5.246366659  -1.014576665
  H    0.082240810  -5.194578160  -1.790754391
  C   -0.989717725  -6.685620504  -0.549043875
  H   -0.202927892  -7.381723148  -0.913597791
  H   -0.955897310  -6.769547145   0.558703423
  O   -0.406509668  -4.355073855   0.082774048
  O   -3.242671994  -1.360508538  -3.295235537
  O   -1.782155907  -1.542156046  -1.123684305
  N   -2.415534540  -7.943889860  -2.258061316
  C   -1.593193198  -7.692150464  -3.394032816
  N   -1.883066508  -8.448106613  -4.554924596
  C   -2.953224816  -9.402215763  -4.680105428
  C   -3.733912609  -9.606212868  -3.455351530
  C   -3.472049011  -8.886184012  -2.336015029
  O   -0.683142871  -6.879079930  -3.401166636
  H   -1.254689959  -8.324792814  -5.355017113
  O   -3.101581638  -9.912070424  -5.773910419
  C   -4.811508374 -10.632365674  -3.503858338
  H   -5.800496381 -10.203167890  -3.279001522
  H   -4.893571859 -11.101661855  -4.499453697
  H   -4.634213971 -11.451056680  -2.787278338
  H   -4.067632000  -9.013661567  -1.419224798
  P    1.159769154  -4.388049228   0.611684784
  O    1.507746199  -2.834122178   0.199303129
  C    2.909752515  -2.524545926  -0.029562276
  H    3.038877259  -1.574001674   0.534949600
  H    3.597514690  -3.295980377   0.377360093
  C    3.163876789  -2.309602775  -1.523690302
  H    3.971717909  -1.549618027  -1.683225607
  O    3.710428961  -3.552745995  -2.059050290
  C    3.139504327  -3.837423115  -3.349324373
  H    3.953437218  -3.659419417  -4.096556207
  C    1.911493825  -1.966101063  -2.355479304
  H    0.983539725  -1.989190869  -1.746180729
  C    1.900921265  -2.954742686  -3.524895502
  H    0.956771370  -3.535531665  -3.563384261
  H    1.943383727  -2.423168131  -4.505357702
  O    2.094712088  -0.618268319  -2.823509726
  O    2.022658542  -5.466955148   0.124861339
  O    0.935515120  -4.299988818   2.215586016
  N    2.800869943  -5.304165516  -3.385196346
  C    2.335444224  -5.827723903  -4.657430919
  N    2.144668357  -7.190319148  -4.787997607
  C    2.287330671  -8.020143416  -3.702017153
  C    2.735732861  -7.504811407  -2.441159576
  C    3.009828821  -6.164104315  -2.312327002
  O    2.128020817  -5.043671134  -5.580649055
  N    1.938835258  -9.332716949  -3.897831207
  H    2.171808744 -10.041587180  -3.217511685
  H    1.681952543  -9.664595529  -4.826245158
  H   -0.017236964  -1.781848816  -5.425954714
  H    3.398036157  -5.716867176  -1.371187022
  H    2.868892046  -8.163020224  -1.582904943
  H    1.316490424  -0.394408689  -3.386028547
  H   -4.770335596  -1.857043808  -4.263559687
  H   -1.100614864  -2.106500296  -0.651371326
  H    0.317670242  -3.605822154   2.580469659
  H    1.688685657  -7.525625305  -6.511538907
  H   -0.092877608   3.326900056  -7.020001820

