%mem=64gb
%nproc=28       
%Chk=snap_23.chk
# opt b3lyp/6-31g(d,p)  scf=(xqc, tight)  pop=min    

tetra snap_23 

2     1 
  O    2.804317662  -4.245306797  -7.822014891
  C    2.788843952  -2.855588654  -8.163167731
  H    3.631229839  -2.767553558  -8.883186635
  H    3.021000898  -2.260171517  -7.254661343
  C    1.466530528  -2.398117514  -8.782141744
  H    1.491628686  -1.313161378  -9.047813396
  O    1.280533262  -3.077489871 -10.072366079
  C    0.034773863  -3.750441751 -10.122008901
  H   -0.371049164  -3.594947016 -11.151604843
  C    0.216570784  -2.744107487  -7.935525195
  H    0.467670946  -3.513266640  -7.168211472
  C   -0.814231635  -3.274120439  -8.945765369
  H   -1.509896983  -2.459749956  -9.245680757
  H   -1.470014200  -4.052711379  -8.506938344
  O   -0.248337558  -1.524663793  -7.357360563
  N    0.336222643  -5.235460679  -9.986723504
  C   -0.614336767  -6.270996050 -10.093509866
  C    0.067213633  -7.486305124  -9.806167971
  N    1.404760845  -7.168650324  -9.510469234
  C    1.552862192  -5.819453291  -9.608888416
  N   -1.939097674  -6.159158717 -10.424947423
  C   -2.619656092  -7.350746316 -10.467512720
  N   -2.020435342  -8.599888414 -10.196783198
  C   -0.611935933  -8.761904498  -9.836395260
  N   -3.967651686  -7.301251168 -10.738498655
  H   -4.382753794  -6.413286939 -11.015343243
  H   -4.507377345  -8.131899664 -10.939221793
  O   -0.211633733  -9.874106124  -9.621153937
  H    2.474002910  -5.223369431  -9.394078701
  H   -2.573894801  -9.468899666 -10.236205758
  P   -0.700410551  -1.654908273  -5.753034760
  O   -1.351503144  -0.132268029  -5.709787150
  C   -0.602401939   0.812280148  -4.907526535
  H   -0.319084933   1.625816234  -5.612222422
  H    0.326176372   0.374216325  -4.474533963
  C   -1.537145376   1.335278707  -3.812593889
  H   -1.041773894   1.344974593  -2.807736357
  O   -1.764416954   2.758149361  -4.082148535
  C   -3.148936483   3.046559759  -4.186115503
  H   -3.297193912   3.997195128  -3.625942985
  C   -2.939103265   0.664236043  -3.761990828
  H   -3.151896987  -0.000544428  -4.636403243
  C   -3.931055192   1.836561961  -3.674082854
  H   -4.241385139   1.969125967  -2.608285948
  H   -4.873322786   1.636721510  -4.216623816
  O   -3.099928080  -0.070653102  -2.545735107
  O    0.448188542  -1.954828038  -4.878995802
  O   -1.915919824  -2.714349972  -5.997651164
  N   -3.426624740   3.288902301  -5.647509884
  C   -3.885772034   4.457905718  -6.245562525
  C   -3.960943824   4.199567834  -7.654563386
  N   -3.523624531   2.892536936  -7.915701448
  C   -3.200913658   2.363950013  -6.735580564
  N   -4.258767078   5.698828469  -5.725119597
  C   -4.688033861   6.664548515  -6.659226788
  N   -4.778386031   6.461521988  -7.961056943
  C   -4.427365971   5.222119868  -8.539403287
  H   -4.973049927   7.663003230  -6.255411612
  N   -4.559289532   5.084628003  -9.868250268
  H   -4.897333401   5.850525568 -10.451875963
  H   -4.315676720   4.210117402 -10.332652513
  H   -2.795491145   1.360435605  -6.561740960
  P   -2.246479140  -1.496822461  -2.449906521
  O   -1.067708955  -0.819935846  -1.542329017
  C    0.097570377  -1.607908283  -1.193596021
  H    0.627992582  -1.947909641  -2.116563072
  H    0.729292803  -0.881834707  -0.643134306
  C   -0.422752199  -2.747654092  -0.321428693
  H   -0.943702623  -2.394621481   0.601790184
  O   -1.488749063  -3.311062701  -1.165589657
  C   -1.190051503  -4.690202741  -1.543630978
  H   -2.179236878  -5.200564629  -1.420229165
  C    0.557370535  -3.893230608   0.000787620
  H    1.586441067  -3.706488049  -0.399359292
  C   -0.102270231  -5.150739761  -0.582148811
  H    0.676435958  -5.779304760  -1.078692830
  H   -0.556795446  -5.816793228   0.199008166
  O    0.665068259  -3.894802343   1.437299244
  O   -1.860856048  -2.014652436  -3.798684750
  O   -3.441448857  -2.297749195  -1.704928718
  N   -0.780462346  -4.737542352  -2.973706088
  C    0.569688740  -4.430013653  -3.356756134
  N    0.932389586  -4.746619211  -4.685398416
  C    0.073850869  -5.375049840  -5.628537748
  C   -1.284239624  -5.656872062  -5.164818045
  C   -1.656161229  -5.366194637  -3.890520534
  O    1.376470985  -3.953394821  -2.578169918
  H    1.893839405  -4.492833842  -4.962776883
  O    0.532415202  -5.549133477  -6.756135477
  C   -2.214676739  -6.285107996  -6.145286036
  H   -3.025398636  -5.599668012  -6.432542862
  H   -1.689059878  -6.575486744  -7.070387450
  H   -2.666112156  -7.205019887  -5.738771692
  H   -2.660029814  -5.604871044  -3.510105611
  P    1.135324030  -5.289833449   2.190212827
  O    2.683487019  -5.390591621   1.650820826
  C    3.367079827  -6.642861418   1.939069527
  H    4.217613815  -6.324303822   2.583743498
  H    2.734097407  -7.372427476   2.488084009
  C    3.874112551  -7.258568307   0.632627868
  H    4.842893415  -7.787121646   0.822195334
  O    2.982355637  -8.341832400   0.241318223
  C    2.443323361  -8.140387340  -1.077096232
  H    2.784159398  -9.019108384  -1.677790061
  C    3.980974815  -6.285044580  -0.568900202
  H    3.852168445  -5.215000405  -0.275707939
  C    2.938522394  -6.780164032  -1.581428516
  H    2.112380641  -6.041801570  -1.691571685
  H    3.358146723  -6.848634697  -2.605240805
  O    5.295672206  -6.289532797  -1.096998094
  O    0.323657661  -6.498121814   1.999495773
  O    1.238478469  -4.714980162   3.703325328
  N    0.943735751  -8.213406818  -0.960851986
  C    0.130774948  -7.935573974  -2.164355251
  N   -1.244910353  -7.994718180  -2.040033179
  C   -1.814940232  -8.374331596  -0.857693415
  C   -1.035478008  -8.660885974   0.306453607
  C    0.334031194  -8.564753996   0.236121951
  O    0.731101447  -7.600769617  -3.169964850
  N   -3.199987796  -8.365627090  -0.817099101
  H   -3.674417465  -8.829198732  -0.054252718
  H   -3.712381243  -8.340304472  -1.690233121
  H    2.044533904  -4.483603241  -7.215447151
  H    0.983841903  -8.749002117   1.109810893
  H   -1.508937948  -8.913014116   1.254423520
  H    5.563584067  -7.170310478  -1.439088156
  H   -2.294667006  -3.133237784  -5.139554723
  H   -3.288567666  -2.656107666  -0.775831535
  H    1.644254554  -3.812231621   3.844114079
  H    2.103699761  -7.852657377  -9.234155988
  H   -4.187259576   5.906415119  -4.726613504

