%mem=64gb
%nproc=28       
%Chk=snap_131.chk
# opt b3lyp/6-31g(d,p)  scf=(xqc, tight)  pop=min    

tetra snap_131 

2     1 
  O    1.293659759  -2.336409683  -6.025477558
  C    1.347706950  -3.259413466  -7.104539444
  H    1.523833118  -4.291327652  -6.719955169
  H    2.241984476  -2.939247546  -7.679902665
  C    0.079484152  -3.172838790  -7.968509679
  H   -0.037255994  -2.169931121  -8.438565033
  O    0.267897809  -4.103614293  -9.090015666
  C   -0.850495751  -4.973949082  -9.234002056
  H   -1.042083691  -5.073646047 -10.329518621
  C   -1.232975916  -3.619248582  -7.275742097
  H   -1.034446195  -4.227092291  -6.365206635
  C   -1.973579163  -4.437512212  -8.347066352
  H   -2.674695796  -3.783204127  -8.910446663
  H   -2.617227269  -5.227913710  -7.900824255
  O   -1.996798013  -2.442994473  -6.991385568
  N   -0.398966080  -6.327920565  -8.724656167
  C   -0.931996194  -7.587647159  -9.064874349
  C   -0.381110906  -8.527288192  -8.141565786
  N    0.447254913  -7.829094473  -7.254460417
  C    0.429283989  -6.522304463  -7.604236755
  N   -1.786046388  -7.902995734 -10.085880960
  C   -2.097454249  -9.237815667 -10.182315117
  N   -1.606558563 -10.228007229  -9.293165411
  C   -0.710384273  -9.929639809  -8.187243809
  N   -2.940548624  -9.616049749 -11.194514605
  H   -3.275180515  -8.917273468 -11.855822452
  H   -3.199053743 -10.575764664 -11.369422267
  O   -0.349955478 -10.830196893  -7.467510204
  H    1.005784016  -5.710879324  -7.107135213
  H   -1.881690937 -11.214856196  -9.401981153
  P   -2.334322316  -2.223040094  -5.375054893
  O   -2.812862146  -0.649330239  -5.509344111
  C   -1.783566275   0.346693059  -5.387112108
  H   -2.103534134   1.120513912  -6.116783567
  H   -0.777757918  -0.023760050  -5.667596796
  C   -1.829846951   0.870054738  -3.941236040
  H   -1.102593167   0.345797141  -3.264493024
  O   -1.316131722   2.238590710  -3.939607568
  C   -2.314475882   3.175727077  -3.524504033
  H   -1.814282046   3.818099086  -2.752999661
  C   -3.277767346   0.921660459  -3.384580436
  H   -4.032105646   0.488426716  -4.090934430
  C   -3.544916255   2.403797916  -3.061658899
  H   -3.697661045   2.505334440  -1.955956607
  H   -4.498507392   2.743178755  -3.506759811
  O   -3.420703229   0.262751998  -2.118473088
  O   -1.112068754  -2.549903785  -4.587869422
  O   -3.711007509  -3.070878526  -5.329490746
  N   -2.580319868   4.033970290  -4.732985058
  C   -1.726590095   4.201805843  -5.816659093
  C   -2.326870100   5.180816395  -6.673448690
  N   -3.536055208   5.612428464  -6.111219493
  C   -3.680299711   4.940945517  -4.968132006
  N   -0.503344329   3.610301949  -6.132357274
  C    0.103027293   4.043502003  -7.323917206
  N   -0.414366278   4.941378895  -8.147626180
  C   -1.649916172   5.568654480  -7.873969063
  H    1.083183590   3.587393701  -7.587062384
  N   -2.108418510   6.481669679  -8.743787225
  H   -1.586393888   6.728970764  -9.584579605
  H   -2.993279035   6.964657050  -8.580884864
  H   -4.500967133   5.043530246  -4.261549470
  P   -2.975631645  -1.330689337  -2.005294939
  O   -1.442578450  -0.929823765  -1.593894748
  C   -0.440524312  -1.967619933  -1.462519567
  H   -0.345750269  -2.526557247  -2.425977400
  H    0.494312868  -1.396567596  -1.271008857
  C   -0.903937014  -2.813125522  -0.279690740
  H   -1.030987042  -2.222202269   0.659113440
  O   -2.269180606  -3.178396466  -0.698553241
  C   -2.387515004  -4.623559975  -0.862429065
  H   -3.415051233  -4.825219109  -0.467532928
  C   -0.160282084  -4.132161871  -0.003475528
  H    0.656230552  -4.303882418  -0.763439752
  C   -1.248195930  -5.221505750  -0.041444502
  H   -0.859664047  -6.185614285  -0.434923835
  H   -1.588687458  -5.471451189   0.989609836
  O    0.413809404  -3.998414114   1.305351407
  O   -3.190064998  -2.080023444  -3.283491694
  O   -4.007419553  -1.704763459  -0.819452201
  N   -2.332805607  -4.988589035  -2.306154765
  C   -1.101127649  -5.139074576  -3.020172756
  N   -1.183040393  -5.728533383  -4.299319153
  C   -2.402246982  -6.055863859  -4.977303766
  C   -3.625915209  -5.761968366  -4.215599825
  C   -3.563614270  -5.247851397  -2.962844026
  O   -0.012799026  -4.841869093  -2.553663724
  H   -0.275396994  -5.930302244  -4.771424360
  O   -2.295397100  -6.511803173  -6.100183795
  C   -4.912043644  -6.029962311  -4.913882223
  H   -5.778218164  -6.051098594  -4.239473299
  H   -5.107065065  -5.261960103  -5.684381871
  H   -4.892227526  -7.000258928  -5.439106746
  H   -4.469372024  -5.012938005  -2.385913938
  P    1.589639409  -5.134531692   1.634888991
  O    2.862014778  -4.460844941   0.825054710
  C    3.456858648  -5.263156154  -0.223013397
  H    4.335345464  -5.776696110   0.223671227
  H    2.759660637  -6.022325928  -0.631270454
  C    3.898048933  -4.236455913  -1.278987997
  H    4.670932449  -3.547282496  -0.869644409
  O    4.593353336  -4.982933460  -2.322912734
  C    3.839295870  -5.005540004  -3.539092960
  H    4.597037987  -4.875733552  -4.349575479
  C    2.732518164  -3.488378744  -1.972259679
  H    1.742808184  -3.718176737  -1.496309887
  C    2.769990704  -3.924745350  -3.442533363
  H    1.755846337  -4.269441877  -3.766905227
  H    2.973884173  -3.078033066  -4.130655135
  O    2.810281046  -2.083621311  -1.810234597
  O    1.268242261  -6.514119755   1.264840765
  O    1.899701380  -4.745398827   3.171421769
  N    3.272835735  -6.412291569  -3.671610851
  C    2.221544471  -6.697706489  -4.618676138
  N    1.830499025  -8.008365962  -4.821839241
  C    2.412799940  -9.034910782  -4.116515437
  C    3.425477301  -8.755190151  -3.132367189
  C    3.843398024  -7.462785276  -2.952860971
  O    1.690775613  -5.778173406  -5.246916642
  N    1.997522664 -10.296740838  -4.427964784
  H    2.357975873 -11.111514158  -3.951226321
  H    1.286571108 -10.457922373  -5.134629462
  H    0.554907079  -2.571390664  -5.379995820
  H    4.648689887  -7.195172913  -2.243412567
  H    3.862244208  -9.563702901  -2.544582648
  H    3.620541154  -1.702305805  -2.214554361
  H   -4.205221825  -3.064534389  -4.426957434
  H   -3.645631826  -1.966251063   0.082807523
  H    2.163722538  -3.796532458   3.371446770
  H    0.932260015  -8.236546057  -6.419138500
  H   -0.088621530   2.927202059  -5.477087533

