%mem=64gb
%nproc=28       
%Chk=snap_119.chk
# opt b3lyp/6-31g(d,p)  scf=(xqc, tight)  pop=min    

tetra snap_119 

2     1 
  O    2.806494166  -3.802905995  -6.581798795
  C    2.590065154  -3.503236352  -7.953884457
  H    3.022699538  -4.286838003  -8.608244654
  H    3.179066586  -2.568726633  -8.084498809
  C    1.111518396  -3.272132256  -8.288646190
  H    0.959147465  -2.294003661  -8.804523641
  O    0.761184265  -4.284770964  -9.301747914
  C   -0.528316774  -4.832788150  -9.059359722
  H   -1.072384449  -4.841817649 -10.034854920
  C    0.067430991  -3.443031737  -7.156895345
  H    0.444222971  -4.075554881  -6.320352168
  C   -1.142725387  -4.057454282  -7.894595552
  H   -1.823785173  -3.256079149  -8.255807723
  H   -1.787275389  -4.675202666  -7.230467381
  O   -0.226126184  -2.118085096  -6.692141153
  N   -0.313327622  -6.276573683  -8.654481692
  C   -1.232363346  -7.335646448  -8.815954091
  C   -0.790415643  -8.394892411  -7.965885324
  N    0.366576740  -7.964761154  -7.301183232
  C    0.643971906  -6.704155299  -7.719005712
  N   -2.312687313  -7.391324357  -9.651776186
  C   -3.014013027  -8.570811660  -9.602974254
  N   -2.675996721  -9.648413123  -8.749614347
  C   -1.536348232  -9.623472366  -7.841683703
  N   -4.115502578  -8.685230253 -10.415386121
  H   -4.325202901  -7.937919874 -11.074909681
  H   -4.614720186  -9.553770877 -10.539270475
  O   -1.349178515 -10.580818001  -7.132527875
  H    1.501420217  -6.093492321  -7.409619564
  H   -3.261548526 -10.495086695  -8.712400274
  P   -0.975006688  -2.005598127  -5.210768061
  O   -1.814388633  -0.621938556  -5.574631312
  C   -1.234858637   0.609257350  -5.115480044
  H   -1.502400757   1.321002961  -5.924949866
  H   -0.131614813   0.562789934  -5.024823012
  C   -1.904049662   0.993907981  -3.782895982
  H   -1.303727074   0.695656657  -2.886198262
  O   -1.900390429   2.453406932  -3.683784589
  C   -3.223170358   2.989075219  -3.780704498
  H   -3.280639878   3.773391289  -2.981424467
  C   -3.386842747   0.544163469  -3.713388431
  H   -3.677052038  -0.126391269  -4.563050346
  C   -4.217497527   1.839831438  -3.663879453
  H   -4.760665487   1.874512497  -2.683381349
  H   -5.016482007   1.834253862  -4.426621805
  O   -3.686607814  -0.107553889  -2.468374054
  O   -0.022397326  -1.916689308  -4.083203854
  O   -2.022743505  -3.228493073  -5.447145314
  N   -3.267076427   3.688266671  -5.115100764
  C   -2.162386590   4.240398689  -5.755683349
  C   -2.643938630   4.893888738  -6.935621865
  N   -4.035157144   4.741852101  -7.014027299
  C   -4.398690062   4.035988566  -5.941730871
  N   -0.807923725   4.236994496  -5.423123711
  C    0.044427239   4.932395520  -6.298016321
  N   -0.353859482   5.551136068  -7.398457954
  C   -1.712211482   5.575334256  -7.783877892
  H    1.127387502   4.954708805  -6.039809817
  N   -2.038451028   6.229384446  -8.909286720
  H   -1.333212565   6.708029334  -9.471428539
  H   -3.007216437   6.282243161  -9.225789708
  H   -5.414333966   3.750073025  -5.679882817
  P   -2.953791283  -1.567886881  -2.192628734
  O   -1.800015360  -0.969551912  -1.206021413
  C   -0.652576252  -1.838323519  -0.987126886
  H   -0.232659827  -2.181188828  -1.963786437
  H    0.082723571  -1.169315955  -0.490977510
  C   -1.163940119  -2.954297596  -0.085173541
  H   -1.499620272  -2.587081869   0.915941835
  O   -2.390983646  -3.388034260  -0.773301541
  C   -2.421051111  -4.842065092  -0.926124657
  H   -3.437337919  -5.115522903  -0.544610227
  C   -0.281681387  -4.208303259   0.052680485
  H    0.535013000  -4.235098315  -0.728411773
  C   -1.263744659  -5.386543578  -0.093610875
  H   -0.771557216  -6.283298855  -0.528448464
  H   -1.612620406  -5.722061924   0.909662363
  O    0.248586147  -4.145488127   1.383486166
  O   -2.488350607  -2.195780174  -3.468618291
  O   -4.227590027  -2.267220492  -1.471242078
  N   -2.359904501  -5.161449987  -2.379765448
  C   -1.125324946  -5.434164260  -3.056284486
  N   -1.231743066  -5.937388994  -4.370453926
  C   -2.458899212  -6.091484576  -5.095624380
  C   -3.660058288  -5.639159696  -4.372819742
  C   -3.586176177  -5.207080921  -3.090363708
  O   -0.037400221  -5.280081623  -2.529966429
  H   -0.341948368  -6.203854663  -4.846993175
  O   -2.384861933  -6.548264769  -6.219142109
  C   -4.935711289  -5.691444109  -5.136819862
  H   -4.876409341  -5.085641981  -6.056937744
  H   -5.161096419  -6.724894979  -5.453476185
  H   -5.802875089  -5.332983849  -4.566189856
  H   -4.473885874  -4.862076338  -2.537764106
  P    1.682207560  -4.957803722   1.575674847
  O    2.630986152  -4.091832894   0.551200142
  C    3.424351917  -4.877958142  -0.375060754
  H    4.387390052  -5.117072280   0.124374048
  H    2.914813793  -5.818549524  -0.669049678
  C    3.648479763  -3.935510508  -1.569104032
  H    4.333769483  -3.090225765  -1.321900913
  O    4.378958739  -4.739914575  -2.553431339
  C    3.625234220  -4.914081827  -3.750657922
  H    4.364480042  -4.784378939  -4.578854129
  C    2.365264890  -3.438122019  -2.268951987
  H    1.435249949  -3.803943970  -1.757625002
  C    2.456332294  -3.939180255  -3.715922738
  H    1.485111284  -4.376209842  -4.030071457
  H    2.624194026  -3.098977478  -4.431889410
  O    2.362085222  -2.012387613  -2.195146430
  O    1.636522903  -6.409048056   1.343699416
  O    2.104779876  -4.380454298   3.030504384
  N    3.167847370  -6.373441732  -3.778841817
  C    2.125745654  -6.808141902  -4.667546012
  N    1.739662116  -8.129841073  -4.702442407
  C    2.322723460  -9.035465144  -3.843654280
  C    3.371570694  -8.623778096  -2.949208477
  C    3.770527975  -7.312284754  -2.942982306
  O    1.580330976  -5.986947596  -5.426451451
  N    1.863679109 -10.317786016  -3.911311585
  H    2.229412707 -11.048198475  -3.316996871
  H    1.106753903 -10.569879677  -4.537065068
  H    2.532373360  -4.724529851  -6.340937618
  H    4.584438442  -6.942772114  -2.291632874
  H    3.845447003  -9.347907835  -2.284907249
  H    1.758755991  -1.648448248  -2.900337053
  H   -2.644893827  -3.438764490  -4.650080931
  H   -4.185775421  -2.390186771  -0.469833715
  H    2.097622152  -5.014657397   3.806671911
  H    0.841380410  -8.466399428  -6.532780469
  H   -0.498491390   3.745555344  -4.567900761

