%mem=64gb
%nproc=28       
%Chk=snap_99.chk
# opt b3lyp/6-31g(d,p)  scf=(xqc, tight)  pop=min    

tetra snap_99 

2     1 
  O    2.675855156  -4.636666401  -7.684693812
  C    2.277027329  -3.405737124  -8.296337028
  H    2.804764147  -3.448585994  -9.277765988
  H    2.670115804  -2.560856398  -7.697884346
  C    0.770374548  -3.255991763  -8.507502491
  H    0.543400297  -2.245694681  -8.937149152
  O    0.354514352  -4.193770611  -9.558283839
  C   -0.826435903  -4.891873898  -9.180999304
  H   -1.467066696  -4.965009694 -10.091571985
  C   -0.159155978  -3.531530523  -7.296965810
  H    0.309399679  -4.179089185  -6.520004015
  C   -1.394676835  -4.183430938  -7.947703625
  H   -2.146651118  -3.416385684  -8.231701130
  H   -1.947413357  -4.859501221  -7.258222024
  O   -0.424058128  -2.228816711  -6.760355655
  N   -0.397930727  -6.294356407  -8.801060242
  C   -1.267074753  -7.382905114  -8.559479825
  C   -0.531141691  -8.325178982  -7.783566559
  N    0.761276577  -7.810360571  -7.587081282
  C    0.825760776  -6.591752732  -8.173873952
  N   -2.552838770  -7.561081725  -8.993991648
  C   -3.156609693  -8.697612314  -8.524399691
  N   -2.514297836  -9.654623536  -7.698492055
  C   -1.147497738  -9.500402095  -7.227223104
  N   -4.484944609  -8.888279367  -8.844687724
  H   -4.917256593  -8.244963331  -9.506823056
  H   -4.933754547  -9.788141362  -8.747734582
  O   -0.699374321 -10.321145352  -6.458179923
  H    1.725186433  -5.881460466  -8.201842795
  H   -3.038078234 -10.456418743  -7.322518281
  P   -1.153150102  -2.132157801  -5.270138842
  O   -1.928592050  -0.702961957  -5.594646844
  C   -1.290307916   0.490183597  -5.109008021
  H   -1.547545736   1.239594954  -5.887337913
  H   -0.189049015   0.401500339  -5.042651012
  C   -1.926244351   0.845553277  -3.753008153
  H   -1.350751623   0.448121783  -2.878666351
  O   -1.813476520   2.287397735  -3.551598627
  C   -3.084293134   2.929735106  -3.685909719
  H   -3.114223423   3.694113961  -2.866383482
  C   -3.440555093   0.504262457  -3.730209118
  H   -3.763796889  -0.099975863  -4.617604660
  C   -4.167794381   1.858922367  -3.638353296
  H   -4.727044583   1.895775767  -2.667292333
  H   -4.950675914   1.951173270  -4.411735910
  O   -3.833138517  -0.195810858  -2.538003837
  O   -0.160544297  -2.087206946  -4.171352127
  O   -2.236763303  -3.317956842  -5.504966325
  N   -3.000814745   3.660749127  -5.000243990
  C   -1.833909485   4.234450127  -5.498488552
  C   -2.179184619   4.890385995  -6.723011550
  N   -3.546435646   4.712091512  -6.975085899
  C   -4.025890894   3.989373013  -5.961170423
  N   -0.529019488   4.246145452  -5.005920536
  C    0.409885175   4.968288361  -5.763557654
  N    0.135589355   5.597300635  -6.895171855
  C   -1.165711647   5.601267368  -7.444129507
  H    1.453104924   5.008202841  -5.376284313
  N   -1.366737894   6.262209061  -8.594022777
  H   -0.608793548   6.761412001  -9.061845189
  H   -2.291344332   6.301842459  -9.025464864
  H   -5.059180593   3.678851460  -5.830219856
  P   -3.088077385  -1.645855456  -2.239470531
  O   -1.928444382  -0.989327792  -1.290273122
  C   -0.754845035  -1.810728843  -1.055245741
  H   -0.311428535  -2.135955180  -2.029459066
  H   -0.055655014  -1.113416601  -0.545678787
  C   -1.216910137  -2.947032938  -0.154093555
  H   -1.539339524  -2.596160267   0.856024249
  O   -2.444703303  -3.419061994  -0.812412580
  C   -2.443682738  -4.882137025  -0.926747128
  H   -3.443232060  -5.162083939  -0.509342002
  C   -0.291011998  -4.172985407  -0.050586943
  H    0.467574493  -4.200041939  -0.886421067
  C   -1.255601187  -5.373029119  -0.106252637
  H   -0.761285687  -6.284915367  -0.511902825
  H   -1.568387208  -5.667917894   0.921074944
  O    0.351566482  -4.057656118   1.222071907
  O   -2.619797553  -2.303481477  -3.498630151
  O   -4.335947974  -2.346492109  -1.481341015
  N   -2.404571294  -5.242075083  -2.369610994
  C   -1.175280318  -5.498353030  -3.066958670
  N   -1.294606086  -6.015919854  -4.373632106
  C   -2.530321736  -6.246645703  -5.055015444
  C   -3.733359685  -5.832336365  -4.313823787
  C   -3.644920791  -5.361332740  -3.045691165
  O   -0.080413742  -5.314148049  -2.566451018
  H   -0.404412419  -6.239060494  -4.874040757
  O   -2.472098527  -6.730107066  -6.167965156
  C   -5.030844772  -5.955129177  -5.033351349
  H   -5.745780908  -6.596257851  -4.494508593
  H   -5.510640712  -4.976557337  -5.186635263
  H   -4.900249690  -6.401955624  -6.035627726
  H   -4.534878069  -5.040094900  -2.482520598
  P    1.711068802  -5.007358307   1.388043878
  O    2.779647141  -4.108953038   0.505976173
  C    3.456673074  -4.806218009  -0.566612926
  H    4.460303950  -5.084967414  -0.175753956
  H    2.922230580  -5.725651583  -0.885526995
  C    3.589048186  -3.778894395  -1.701507041
  H    4.195809547  -2.893131675  -1.400354115
  O    4.387274566  -4.463729208  -2.726766331
  C    3.654219047  -4.616361705  -3.943319235
  H    4.406405852  -4.466134289  -4.754613522
  C    2.273439422  -3.361460653  -2.391463159
  H    1.384612037  -3.920572608  -1.992228819
  C    2.495661748  -3.628010536  -3.889101474
  H    1.550302607  -3.975886570  -4.359703279
  H    2.747787282  -2.689532413  -4.422365081
  O    2.061829695  -1.970152222  -2.142057567
  O    1.573831465  -6.409290403   0.991222360
  O    2.092628617  -4.626315316   2.912383410
  N    3.189545474  -6.063130620  -4.009943068
  C    2.081838528  -6.458653642  -4.841647068
  N    1.703624064  -7.778028666  -4.898903761
  C    2.327502610  -8.723386078  -4.115650015
  C    3.428775306  -8.345246604  -3.267896242
  C    3.834878855  -7.037366023  -3.243916301
  O    1.486943803  -5.609632350  -5.525491186
  N    1.858305702  -9.995007086  -4.240411024
  H    2.231239236 -10.759986443  -3.696427557
  H    1.059146565 -10.198534861  -4.845753682
  H    2.398543318  -4.688065908  -6.721960838
  H    4.687377434  -6.694835252  -2.629452128
  H    3.935538589  -9.092589615  -2.656558154
  H    1.363399722  -1.638345107  -2.775340744
  H   -2.829951807  -3.550391791  -4.691286617
  H   -4.280570326  -2.438838266  -0.477689523
  H    2.235729682  -3.656520586   3.130649736
  H    1.416699213  -8.196163413  -6.899159166
  H   -0.304903380   3.721510555  -4.146168852

