%mem=64gb
%nproc=28       
%Chk=snap_158.chk
# opt b3lyp/6-31g(d,p)  scf=(xqc, tight)  pop=min    

tetra snap_158 

2     1 
  O    1.911569472  -2.677991768  -4.636350977
  C    1.500750272  -3.735099874  -5.495208260
  H    0.902565752  -4.470255511  -4.920575977
  H    2.466139998  -4.221375365  -5.773325991
  C    0.784697162  -3.183892576  -6.732500565
  H    1.064562189  -2.116477787  -6.911690140
  O    1.320565958  -3.882783694  -7.909721479
  C    0.284458190  -4.468319247  -8.684035929
  H    0.565562274  -4.337452132  -9.756711321
  C   -0.751605733  -3.396020527  -6.778488979
  H   -1.128668861  -4.117335532  -6.018619310
  C   -1.039769840  -3.866212689  -8.213487993
  H   -1.333908475  -2.995790100  -8.843461331
  H   -1.909253257  -4.551609020  -8.277189352
  O   -1.414963585  -2.123607447  -6.649595431
  N    0.339404860  -5.950884701  -8.365572807
  C   -0.648275242  -6.922568902  -8.634102854
  C   -0.276338932  -8.087764688  -7.902959769
  N    0.933185083  -7.825200942  -7.247348556
  C    1.286388160  -6.541799295  -7.504933525
  N   -1.753130592  -6.812123734  -9.431037249
  C   -2.551091729  -7.933377722  -9.456457991
  N   -2.271530219  -9.118673094  -8.734986549
  C   -1.145445455  -9.238313573  -7.824023052
  N   -3.684081680  -7.876410271 -10.228340253
  H   -3.851915172  -7.056714817 -10.807376173
  H   -4.290964932  -8.670301566 -10.370457634
  O   -1.053260082 -10.226923143  -7.133752723
  H    2.181778606  -6.021654135  -7.118428830
  H   -2.954834774  -9.888749445  -8.710176369
  P   -1.844157210  -1.668124322  -5.122897509
  O   -2.859080985  -0.444808896  -5.546955702
  C   -2.225785425   0.697717977  -6.158155566
  H   -3.107892864   1.328355466  -6.405523437
  H   -1.724895247   0.402925370  -7.102706726
  C   -1.269396626   1.415815435  -5.192702394
  H   -0.235202551   0.975070895  -5.174693189
  O   -1.066458176   2.762135117  -5.733946108
  C   -1.392913633   3.769585820  -4.768820965
  H   -0.517847599   4.470857575  -4.768697038
  C   -1.821358790   1.586458804  -3.754807268
  H   -2.865041102   1.198000375  -3.644547674
  C   -1.708091852   3.089260374  -3.442587537
  H   -0.878848670   3.241941853  -2.704459905
  H   -2.608476400   3.466259564  -2.925058131
  O   -0.896051268   0.950651608  -2.854535057
  O   -0.603364014  -1.250274080  -4.348161585
  O   -2.644770047  -2.984001992  -4.626239385
  N   -2.577029630   4.504060014  -5.337071505
  C   -2.892382520   4.613984212  -6.685979118
  C   -4.012825320   5.501297323  -6.783318546
  N   -4.377727871   5.931354559  -5.500122676
  C   -3.531747337   5.346263392  -4.651973924
  N   -2.322454337   4.030766726  -7.817035585
  C   -2.893964799   4.390358108  -9.050592642
  N   -3.922441065   5.210925168  -9.190773065
  C   -4.538306233   5.823152860  -8.076083288
  H   -2.446565008   3.942160164  -9.965315974
  N   -5.567060608   6.655278561  -8.295694275
  H   -5.897879828   6.858038599  -9.239879144
  H   -6.041834782   7.122171926  -7.521100372
  H   -3.519223813   5.468485016  -3.571345484
  P   -1.379758283  -0.526006956  -2.294809677
  O   -0.011305251  -1.215910684  -1.764047025
  C    0.186613593  -2.636734900  -1.947152047
  H   -0.026394665  -2.959176935  -2.986362794
  H    1.286974486  -2.698705346  -1.766416251
  C   -0.608147532  -3.429572553  -0.909381840
  H   -0.782780405  -2.844061706   0.026892291
  O   -1.940937945  -3.688593353  -1.452544470
  C   -2.286950022  -5.075433019  -1.357363919
  H   -3.305492663  -5.083934889  -0.895692004
  C    0.001456650  -4.818939123  -0.585045221
  H    0.773129973  -5.135846910  -1.343056474
  C   -1.201710136  -5.776242996  -0.538920017
  H   -0.940223706  -6.792027505  -0.904399191
  H   -1.548430821  -5.938226959   0.506449639
  O    0.614024058  -4.645600989   0.701867859
  O   -2.499669013  -1.195041215  -3.060258738
  O   -1.974781706  -0.055470108  -0.842883041
  N   -2.403921813  -5.602373276  -2.761722403
  C   -1.254269500  -5.815339565  -3.571107374
  N   -1.461224789  -6.485652809  -4.800963718
  C   -2.745164630  -6.876550581  -5.313283093
  C   -3.884756757  -6.505455059  -4.462659877
  C   -3.694313127  -5.913111992  -3.258852816
  O   -0.130394365  -5.448504821  -3.259748260
  H   -0.608025762  -6.821234635  -5.275155671
  O   -2.759369514  -7.450998985  -6.383118491
  C   -5.234796952  -6.845664355  -4.989018497
  H   -6.040378709  -6.254876226  -4.531386623
  H   -5.300158628  -6.680826715  -6.077271661
  H   -5.470365319  -7.910142352  -4.818723820
  H   -4.536689796  -5.647568064  -2.602763860
  P    1.527757975  -5.913045822   1.251962327
  O    2.976210571  -5.155350393   1.334070034
  C    4.153938412  -5.897396098   0.931804796
  H    4.897719451  -5.562246842   1.691967932
  H    4.021311878  -6.996457947   1.011218142
  C    4.597838039  -5.497719744  -0.478117108
  H    5.709437433  -5.373001105  -0.501933895
  O    4.355462717  -6.639125737  -1.355156995
  C    3.708379190  -6.214806985  -2.569337163
  H    4.476852056  -6.268580067  -3.382312497
  C    3.880711149  -4.267213096  -1.099405141
  H    3.234806160  -3.728908532  -0.363620660
  C    3.132326723  -4.818043649  -2.321460261
  H    2.030556663  -4.864178074  -2.160207777
  H    3.236106949  -4.150008564  -3.207315195
  O    4.820022541  -3.264597876  -1.437809440
  O    1.426998990  -7.163643155   0.486664697
  O    1.062448028  -5.943256216   2.804512662
  N    2.650275966  -7.236712612  -2.871972214
  C    2.148338723  -7.277380583  -4.233276449
  N    1.243889912  -8.269323208  -4.577505098
  C    0.791191419  -9.161969444  -3.632883046
  C    1.254156651  -9.093384963  -2.279551860
  C    2.190182698  -8.149144716  -1.929032985
  O    2.535412840  -6.440103415  -5.041585012
  N   -0.149096440 -10.062535715  -4.059529487
  H   -0.442943732 -10.829216675  -3.470703888
  H   -0.396684292 -10.128312502  -5.047727121
  H    1.144245114  -2.092922782  -4.373694919
  H    2.611934724  -8.078357900  -0.904058430
  H    0.884242332  -9.786711292  -1.523528888
  H    5.416873777  -3.531282304  -2.171504602
  H   -2.836976050  -2.996755831  -3.598251179
  H   -1.330509189   0.119487342  -0.107199375
  H    1.292638013  -5.156909439   3.381974189
  H    1.323770492  -8.429031509  -6.487962150
  H   -1.515087640   3.397663756  -7.705400719

