%mem=64gb
%nproc=28       
%Chk=snap_104.chk
# opt b3lyp/6-31g(d,p)  scf=(xqc, tight)  pop=min    

tetra snap_104 

2     1 
  O    2.886891829  -4.863783387  -7.297958731
  C    2.606681954  -3.612903993  -7.931718785
  H    3.196336480  -3.692222137  -8.875784456
  H    3.012789166  -2.793562830  -7.307289394
  C    1.131523559  -3.368049592  -8.253600818
  H    1.004770585  -2.343976347  -8.691283989
  O    0.750763210  -4.273586092  -9.344976934
  C   -0.489651953  -4.912815296  -9.072657488
  H   -1.054795771  -4.942242495 -10.034508970
  C    0.083894513  -3.584640630  -7.130999487
  H    0.448016702  -4.237553200  -6.303593368
  C   -1.121795553  -4.183962340  -7.881840053
  H   -1.813497783  -3.383288341  -8.221734205
  H   -1.756473961  -4.833352389  -7.242113572
  O   -0.182132430  -2.261560735  -6.638374315
  N   -0.174640393  -6.338031143  -8.673969872
  C   -1.111926027  -7.393086056  -8.583744766
  C   -0.533399868  -8.375210281  -7.728311810
  N    0.743280568  -7.924405542  -7.348987535
  C    0.941594056  -6.703469680  -7.897818816
  N   -2.321288717  -7.513582069  -9.211390212
  C   -3.014896966  -8.652801601  -8.890920978
  N   -2.539659024  -9.643828386  -7.995541873
  C   -1.264763150  -9.538605402  -7.302370007
  N   -4.258597854  -8.820075526  -9.457244993
  H   -4.572817181  -8.150042280 -10.156749984
  H   -4.750500657  -9.700910849  -9.425538922
  O   -0.976502177 -10.384577669  -6.487135841
  H    1.876446432  -6.035802682  -7.802567392
  H   -3.132787480 -10.443274352  -7.736299529
  P   -1.009081461  -2.122515831  -5.205746131
  O   -1.911816823  -0.799331902  -5.631417795
  C   -1.379074587   0.477233494  -5.253775508
  H   -1.829563781   1.154094319  -6.011845041
  H   -0.276493254   0.526045565  -5.339722043
  C   -1.863123761   0.821579387  -3.832657908
  H   -1.179293456   0.450466032  -3.029701343
  O   -1.759042198   2.271337170  -3.676626880
  C   -3.048989712   2.883887301  -3.605787788
  H   -2.981561258   3.610082564  -2.753965909
  C   -3.352543331   0.446208749  -3.617028900
  H   -3.758166496  -0.194199198  -4.441405439
  C   -4.099668296   1.785475314  -3.470298863
  H   -4.585043611   1.814624275  -2.460461514
  H   -4.938180659   1.854652566  -4.187052610
  O   -3.575334917  -0.208613785  -2.357881088
  O   -0.065318289  -1.930748032  -4.079330290
  O   -2.010280280  -3.383652611  -5.412713620
  N   -3.185035416   3.676257939  -4.879795655
  C   -2.135086619   4.138092131  -5.666388309
  C   -2.713643491   4.924912425  -6.714718894
  N   -4.107058311   4.947651587  -6.564950862
  C   -4.380884079   4.218417304  -5.482670820
  N   -0.755360543   3.952694517  -5.572753315
  C    0.022751560   4.592503733  -6.554532802
  N   -0.466712875   5.328188306  -7.539474494
  C   -1.855075716   5.551495540  -7.675149028
  H    1.126158237   4.457268912  -6.493783684
  N   -2.277339672   6.331207437  -8.681633870
  H   -1.621247821   6.764246129  -9.333405990
  H   -3.271051010   6.525021744  -8.816398705
  H   -5.367063463   4.041445368  -5.060623211
  P   -2.916988646  -1.714800136  -2.149384474
  O   -1.736163722  -1.207911123  -1.143472521
  C   -0.590710424  -2.095075623  -1.038302464
  H   -0.223521075  -2.371392092  -2.057985685
  H    0.166704558  -1.464864611  -0.524572653
  C   -1.065450042  -3.276232210  -0.200292637
  H   -1.311483416  -2.993262819   0.850287167
  O   -2.354834118  -3.613598752  -0.828066846
  C   -2.461881579  -5.056195144  -1.054010129
  H   -3.453134549  -5.309117510  -0.601601374
  C   -0.216016525  -4.562299514  -0.257691427
  H    0.497575320  -4.550854743  -1.129320529
  C   -1.259232071  -5.690067620  -0.355476401
  H   -0.851222818  -6.585024917  -0.869642597
  H   -1.525780854  -6.047421097   0.665296182
  O    0.468604293  -4.669872767   0.999500926
  O   -2.508222716  -2.315129971  -3.458201903
  O   -4.192204685  -2.395013030  -1.414933499
  N   -2.516696242  -5.307931494  -2.517964642
  C   -1.329017632  -5.557820429  -3.283550522
  N   -1.514228177  -6.122290107  -4.560535659
  C   -2.785950721  -6.316334935  -5.194560718
  C   -3.942696684  -5.859612956  -4.400822173
  C   -3.790400167  -5.395563768  -3.136996489
  O   -0.214580804  -5.319276848  -2.851736033
  H   -0.643579795  -6.393172690  -5.065548034
  O   -2.783719542  -6.802503468  -6.305563629
  C   -5.273007075  -5.962569447  -5.059735074
  H   -5.719216436  -6.958965879  -4.897939368
  H   -5.994805156  -5.219178017  -4.694120932
  H   -5.198002531  -5.829336727  -6.153037521
  H   -4.642298653  -5.055371410  -2.529561393
  P    2.026576255  -5.232269261   0.884906742
  O    2.683092066  -3.797394523   0.420534989
  C    3.976544504  -3.808956758  -0.223449510
  H    4.510802172  -2.993066751   0.315782092
  H    4.526017717  -4.763738999  -0.081667277
  C    3.850269679  -3.480577740  -1.714303338
  H    4.619122000  -2.724092114  -2.012784284
  O    4.228546955  -4.701154973  -2.435040861
  C    3.412612890  -4.887321620  -3.597809937
  H    4.124287631  -4.911731036  -4.459980274
  C    2.462467434  -3.084327168  -2.260350244
  H    1.637183370  -3.388748098  -1.578396523
  C    2.362969732  -3.777113654  -3.626904898
  H    1.328664860  -4.156736188  -3.803244164
  H    2.542876421  -3.059358731  -4.449517046
  O    2.443728147  -1.662808787  -2.385337449
  O    2.318365748  -6.384995434   0.028642482
  O    2.363367908  -5.374230318   2.461741145
  N    2.778485928  -6.255323707  -3.504969565
  C    1.835066193  -6.638734535  -4.523423811
  N    1.359949218  -7.925457270  -4.571037595
  C    1.668508307  -8.811308655  -3.558452203
  C    2.493398159  -8.398866079  -2.460416325
  C    3.036865969  -7.136918745  -2.453633873
  O    1.470972053  -5.801833432  -5.368542983
  N    1.141448763 -10.062203729  -3.693626448
  H    1.325213878 -10.792747043  -3.022341645
  H    0.556844251 -10.298996204  -4.495115932
  H    2.531803289  -4.899452219  -6.357070593
  H    3.697125874  -6.771972871  -1.643188382
  H    2.679212341  -9.065219845  -1.616416667
  H    1.692075743  -1.396746668  -2.983601652
  H   -2.638193363  -3.585394983  -4.616438701
  H   -4.120190924  -2.566360581  -0.422936346
  H    2.078018526  -4.636348627   3.077289288
  H    1.287297722  -8.351849932  -6.588279043
  H   -0.370496453   3.403969001  -4.785967713

