%mem=64gb
%nproc=28       
%Chk=snap_192.chk
# opt b3lyp/6-31g(d,p)  scf=(xqc, tight)  pop=min    

tetra snap_192 

2     1 
  O    0.346276708  -1.528537193  -6.145629426
  C    0.593992884  -2.451771355  -7.199226188
  H    0.984985550  -3.410233208  -6.786850946
  H    1.402561219  -1.973614531  -7.789293895
  C   -0.674867772  -2.647565909  -8.042295942
  H   -0.961955967  -1.718799563  -8.587926286
  O   -0.342154649  -3.605003339  -9.101852299
  C   -1.273651724  -4.681457939  -9.134285032
  H   -1.467832885  -4.908836016 -10.211277344
  C   -1.892456400  -3.246401300  -7.291456709
  H   -1.618178405  -3.695154299  -6.306760640
  C   -2.469171554  -4.286938768  -8.264109110
  H   -3.282440011  -3.826146989  -8.875417484
  H   -2.960806179  -5.139365462  -7.759649829
  O   -2.868351692  -2.189098697  -7.171044190
  N   -0.550489085  -5.863706085  -8.527617092
  C   -0.994205632  -7.201111340  -8.476935793
  C   -0.048876644  -7.906672824  -7.672688062
  N    0.939030191  -7.004634884  -7.260378857
  C    0.626478959  -5.786410610  -7.752036844
  N   -2.120979750  -7.744861959  -9.017317361
  C   -2.281826055  -9.093690856  -8.769086543
  N   -1.345008846  -9.878650652  -8.050421247
  C   -0.199887873  -9.308898774  -7.377078931
  N   -3.385405904  -9.703439746  -9.302366750
  H   -4.063503533  -9.144544631  -9.817039110
  H   -3.680739958 -10.628946366  -9.021783461
  O    0.462305411  -9.999311608  -6.634395892
  H    1.195751399  -4.853091302  -7.574707741
  H   -1.569869678 -10.855911482  -7.806015778
  P   -3.146129388  -1.658578353  -5.636285520
  O   -3.228203263  -0.020925081  -5.782656411
  C   -1.978605544   0.685157619  -5.931920025
  H   -2.328977128   1.722892234  -6.118454801
  H   -1.427000912   0.322248102  -6.823866260
  C   -1.121266092   0.589889664  -4.659545957
  H   -0.471899566  -0.332503300  -4.654941464
  O   -0.128489412   1.656206656  -4.674973441
  C   -0.329279949   2.584396911  -3.603237483
  H    0.686074631   2.717045119  -3.142175426
  C   -1.927125458   0.748752704  -3.349227131
  H   -3.035153930   0.766480072  -3.507111912
  C   -1.403929602   2.027464485  -2.674933732
  H   -0.976387508   1.765217590  -1.672680509
  H   -2.225447850   2.731011663  -2.448233947
  O   -1.530650899  -0.319155498  -2.460928178
  O   -1.953211464  -2.096673766  -4.784950064
  O   -4.661772821  -2.159684885  -5.477966004
  N   -0.706089316   3.872190795  -4.277936814
  C   -0.187639428   4.291144545  -5.500917860
  C   -0.674125247   5.617831001  -5.729111647
  N   -1.489133734   6.004559410  -4.656267375
  C   -1.502997593   4.979756742  -3.803489103
  N    0.656934052   3.656518489  -6.410359358
  C    1.030272743   4.413627619  -7.535371650
  N    0.614592455   5.645075990  -7.783894576
  C   -0.261349157   6.322029942  -6.906959991
  H    1.725350174   3.934304568  -8.260654385
  N   -0.641830717   7.568188725  -7.224783234
  H   -0.304708100   8.030262830  -8.071044657
  H   -1.268840402   8.098610109  -6.617579907
  H   -2.025272520   4.947010223  -2.851495388
  P   -2.420086017  -1.707204787  -2.568708556
  O   -1.191195094  -2.762897791  -2.639074036
  C   -1.536904190  -4.173346582  -2.661210455
  H   -2.443874521  -4.379388395  -3.262565878
  H   -0.659249075  -4.605295577  -3.197162417
  C   -1.690094081  -4.697317404  -1.227166195
  H   -1.958746872  -3.892626918  -0.489453506
  O   -2.851344943  -5.575381143  -1.242489628
  C   -2.474150481  -6.938943372  -1.031111666
  H   -3.273413393  -7.349383561  -0.366684328
  C   -0.498846561  -5.543635578  -0.709532854
  H    0.363066185  -5.570842354  -1.416495258
  C   -1.068104967  -6.946081416  -0.429782615
  H   -0.409057581  -7.740743947  -0.830521138
  H   -1.111621179  -7.125412338   0.668051708
  O   -0.161272139  -4.968192560   0.573505635
  O   -3.665066490  -1.532707813  -3.410288572
  O   -2.885285262  -1.973364703  -1.025793756
  N   -2.560124518  -7.642998930  -2.363107033
  C   -1.534496918  -7.507983296  -3.339602671
  N   -1.740461214  -8.179465973  -4.568644054
  C   -2.925970077  -8.914476991  -4.916544964
  C   -3.953166435  -8.947161178  -3.870102500
  C   -3.755185591  -8.331798851  -2.676941461
  O   -0.518104637  -6.854715381  -3.163756632
  H   -0.946822176  -8.174334706  -5.220407863
  O   -2.958560008  -9.406336013  -6.028882026
  C   -5.210213715  -9.677566998  -4.192013789
  H   -5.720013978 -10.069078621  -3.299231468
  H   -5.925774662  -9.026125260  -4.720628399
  H   -5.024226864 -10.544205372  -4.849579331
  H   -4.521041840  -8.342849875  -1.887080495
  P    1.425585490  -4.632544394   0.819044834
  O    1.490762643  -3.098567727   0.264704449
  C    2.826126610  -2.554218315   0.078296636
  H    2.841264258  -1.674399494   0.759568481
  H    3.636780032  -3.259468542   0.357910035
  C    2.969905172  -2.129158192  -1.383396893
  H    3.660325925  -1.251871703  -1.475367035
  O    3.658292007  -3.212994597  -2.082883354
  C    3.052650336  -3.472414005  -3.355302588
  H    3.841991809  -3.253033591  -4.116689148
  C    1.649065102  -1.866406867  -2.138193506
  H    0.742935777  -2.159401248  -1.556472104
  C    1.782531656  -2.623788589  -3.467660230
  H    0.879008641  -3.227169379  -3.681801740
  H    1.862668216  -1.917118335  -4.324329466
  O    1.617463888  -0.447786295  -2.363435587
  O    2.380199899  -5.594302619   0.238199487
  O    1.453632421  -4.390560936   2.425821785
  N    2.758595217  -4.954350020  -3.425803169
  C    2.247429419  -5.460325446  -4.683391296
  N    2.093369134  -6.825623666  -4.843326392
  C    2.326887585  -7.682905109  -3.793098916
  C    2.841544609  -7.185565982  -2.550770945
  C    3.073104324  -5.840134666  -2.398151423
  O    1.961114491  -4.663376663  -5.575001576
  N    2.015317178  -8.999258476  -4.011986139
  H    2.274177113  -9.716457660  -3.350639908
  H    1.703939678  -9.318195052  -4.928596838
  H   -0.270428037  -1.930036020  -5.448488634
  H    3.506941141  -5.410072936  -1.467668313
  H    3.051411641  -7.858878984  -1.718874786
  H    0.725804670  -0.190079521  -2.679079946
  H   -5.100357200  -1.989804093  -4.557456923
  H   -3.791143167  -1.678992450  -0.736643371
  H    1.506595353  -5.178452769   3.031544248
  H    1.665307457  -7.204903437  -6.497030261
  H    0.960448629   2.685148224  -6.234563281

