%mem=64gb
%nproc=28       
%Chk=snap_174.chk
# opt b3lyp/6-31g(d,p)  scf=(xqc, tight)  pop=min    

tetra snap_174 

2     1 
  O    0.700912540  -1.626993496  -6.299819248
  C    0.728639190  -2.715916730  -7.211757516
  H    0.997637602  -3.655959610  -6.675400358
  H    1.560047138  -2.457955456  -7.903775310
  C   -0.602767427  -2.823638198  -7.973900254
  H   -0.818822682  -1.895451318  -8.552851235
  O   -0.420635915  -3.863247829  -8.992507476
  C   -1.425821014  -4.866884298  -8.903175122
  H   -1.710731830  -5.128774772  -9.952693472
  C   -1.833420857  -3.257230422  -7.138918827
  H   -1.551206784  -3.636257473  -6.127449874
  C   -2.529517042  -4.332070681  -7.986188079
  H   -3.357147240  -3.870916514  -8.577095370
  H   -3.027941885  -5.111747574  -7.382608442
  O   -2.735555432  -2.118829682  -7.078350314
  N   -0.761699256  -6.078669328  -8.289621230
  C   -1.196172919  -7.420589348  -8.347651414
  C   -0.289088877  -8.171413337  -7.541847987
  N    0.674603965  -7.296553590  -7.031428579
  C    0.383943129  -6.052361002  -7.465970399
  N   -2.268368470  -7.947044300  -9.005851970
  C   -2.411997931  -9.313390345  -8.864697530
  N   -1.530482763 -10.131342809  -8.114269001
  C   -0.436073182  -9.591650604  -7.336696713
  N   -3.457547686  -9.897824208  -9.525456657
  H   -4.070333333  -9.326500913 -10.104005571
  H   -3.672071808 -10.882139915  -9.458488645
  O    0.211171211 -10.312354885  -6.610482634
  H    0.961927490  -5.137863783  -7.214286725
  H   -1.766316171 -11.119244658  -7.930277340
  P   -2.870408654  -1.458616674  -5.577326525
  O   -3.007975565   0.161089372  -5.783281273
  C   -1.823523617   0.898338015  -6.148538365
  H   -2.237328212   1.926503809  -6.247625473
  H   -1.459202738   0.557881638  -7.139946689
  C   -0.707995665   0.841844829  -5.091959984
  H    0.033480572   0.018256718  -5.303584927
  O    0.095298088   2.054069300  -5.253201522
  C    0.213717515   2.780444640  -4.023087124
  H    1.315464728   2.943000284  -3.882958740
  C   -1.180309263   0.809931724  -3.620848533
  H   -2.296012219   0.847922535  -3.517995558
  C   -0.489706419   1.992034433  -2.922261355
  H    0.238498103   1.605293020  -2.165303510
  H   -1.213976002   2.578917305  -2.325234128
  O   -0.608745142  -0.376680841  -3.025275249
  O   -1.571150540  -1.837395411  -4.864906977
  O   -4.329737010  -1.966421858  -5.159397891
  N   -0.423881416   4.117723321  -4.275838837
  C   -0.596879611   4.726549744  -5.513771587
  C   -1.137026774   6.030420210  -5.265604439
  N   -1.287299294   6.217311431  -3.884665885
  C   -0.862803175   5.095689431  -3.304006901
  N   -0.337554848   4.280847423  -6.809299885
  C   -0.617700597   5.193021622  -7.844273850
  N   -1.117129458   6.404105037  -7.662713314
  C   -1.400992296   6.902520667  -6.371120157
  H   -0.406674038   4.855439644  -8.883990703
  N   -1.888856174   8.146937846  -6.261448153
  H   -2.053219391   8.732020787  -7.082015138
  H   -2.103629831   8.550757139  -5.348066785
  H   -0.819369801   4.904097387  -2.234434125
  P   -1.702223475  -1.571417690  -2.686292771
  O   -0.915202886  -3.000805404  -2.889296736
  C   -1.798637679  -4.150981555  -2.955940689
  H   -2.738877592  -3.956744350  -3.505490582
  H   -1.194458911  -4.887326098  -3.533717166
  C   -2.066852142  -4.609901188  -1.516274715
  H   -2.477279012  -3.806353663  -0.856033664
  O   -3.131571109  -5.589449111  -1.566300218
  C   -2.690042824  -6.861588685  -1.058595811
  H   -3.521812115  -7.197681495  -0.391057590
  C   -0.834298808  -5.290917803  -0.873010731
  H    0.019340411  -5.416398195  -1.586135361
  C   -1.353387482  -6.637806127  -0.344075401
  H   -0.619212673  -7.452834834  -0.517139912
  H   -1.500913483  -6.604502939   0.757020358
  O   -0.473874708  -4.391211805   0.202429847
  O   -3.081686171  -1.307092722  -3.232028029
  O   -1.626905080  -1.512761437  -1.056934300
  N   -2.625588433  -7.787909953  -2.239035631
  C   -1.563903879  -7.702584436  -3.184114425
  N   -1.692333690  -8.489059440  -4.351948245
  C   -2.850284893  -9.271736879  -4.695211800
  C   -3.898031661  -9.293571124  -3.665263005
  C   -3.771850954  -8.573054461  -2.523636592
  O   -0.578591719  -6.998862115  -3.024849283
  H   -0.863769362  -8.527025763  -4.957917972
  O   -2.852585819  -9.796876060  -5.789782876
  C   -5.076088782 -10.161771374  -3.938026255
  H   -6.006385989  -9.777075067  -3.496667226
  H   -5.262245779 -10.274634251  -5.019592352
  H   -4.921703075 -11.179447412  -3.539918043
  H   -4.553256989  -8.573312158  -1.749177404
  P    1.106566126  -4.473111708   0.680757865
  O    1.496104995  -2.932815157   0.248670510
  C    2.914652497  -2.664794282   0.067792796
  H    3.061060269  -1.732615933   0.657121151
  H    3.564919382  -3.468869778   0.473870630
  C    3.220865500  -2.429369345  -1.412707042
  H    4.058972575  -1.695024715  -1.533973563
  O    3.744121354  -3.678992664  -1.955897878
  C    3.193474525  -3.934113993  -3.258408256
  H    4.043151696  -3.822394335  -3.978145905
  C    2.009450864  -2.028632578  -2.278162962
  H    1.058188132  -2.064932308  -1.708005412
  C    2.025761062  -2.970760636  -3.486505137
  H    1.054580394  -3.494604264  -3.610477876
  H    2.162848616  -2.407534663  -4.436902390
  O    2.242935067  -0.670791006  -2.682194409
  O    1.929235360  -5.570995153   0.167914471
  O    0.933795401  -4.370815893   2.290384636
  N    2.764075543  -5.380900390  -3.291689468
  C    2.207644906  -5.860510840  -4.540299036
  N    2.000031552  -7.219751198  -4.699351984
  C    2.220652759  -8.087940198  -3.656327391
  C    2.726607143  -7.609101116  -2.404186236
  C    2.998152563  -6.270568435  -2.246637268
  O    1.940315023  -5.048552646  -5.423710023
  N    1.889764163  -9.399740044  -3.888741433
  H    2.173027109 -10.128667176  -3.248844725
  H    1.604996981  -9.706379287  -4.816477486
  H    0.082271460  -1.808275491  -5.526404083
  H    3.403994524  -5.848076888  -1.302817074
  H    2.887907332  -8.291983290  -1.569443911
  H    1.440093410  -0.353693056  -3.157613196
  H   -4.627366020  -1.750444078  -4.186035018
  H   -0.967237289  -2.102006526  -0.583004384
  H    0.338496893  -3.664387246   2.667202080
  H    1.408434706  -7.548205632  -6.284950681
  H    0.075046173   3.345504095  -6.950777455

