%mem=64gb
%nproc=28       
%Chk=snap_186.chk
# opt b3lyp/6-31g(d,p)  scf=(xqc, tight)  pop=min    

tetra snap_186 

2     1 
  O    0.306371719  -1.834587771  -5.796592445
  C    0.439344075  -2.850473395  -6.785498933
  H    0.368268570  -3.850596521  -6.309951963
  H    1.476560411  -2.709358161  -7.160388720
  C   -0.592130115  -2.649620921  -7.904044753
  H   -0.665985108  -1.587452182  -8.223798794
  O   -0.060123687  -3.338932333  -9.087091722
  C   -0.898505310  -4.423764178  -9.460504211
  H   -0.816368288  -4.521942847 -10.569236183
  C   -1.987041556  -3.277799813  -7.634668990
  H   -2.012234903  -3.873129364  -6.691605559
  C   -2.278926377  -4.140589427  -8.871087744
  H   -2.914204342  -3.569835383  -9.591399336
  H   -2.884138820  -5.041841178  -8.647771585
  O   -2.981417951  -2.219891972  -7.628628456
  N   -0.254234712  -5.649518800  -8.830475871
  C   -0.850537027  -6.878466557  -8.483129145
  C    0.124817741  -7.601773880  -7.732942808
  N    1.288705387  -6.825193739  -7.652232851
  C    1.054144170  -5.654447891  -8.288699152
  N   -2.109863055  -7.328020950  -8.766327363
  C   -2.414016121  -8.563759162  -8.234563089
  N   -1.520926161  -9.310900876  -7.435304129
  C   -0.176683227  -8.874965283  -7.131028311
  N   -3.666986796  -9.064622898  -8.463209744
  H   -4.295999419  -8.580319226  -9.099673280
  H   -3.944286773  -9.987654080  -8.150566213
  O    0.486746758  -9.565798147  -6.389050670
  H    1.758410506  -4.819447199  -8.398957050
  H   -1.857043790 -10.150662076  -6.894811280
  P   -3.449776589  -1.755070718  -6.119357143
  O   -3.686377780  -0.136065795  -6.225171041
  C   -2.538202294   0.718370932  -6.378002077
  H   -3.010949311   1.726010361  -6.352616823
  H   -2.087841019   0.561326736  -7.380005439
  C   -1.506839361   0.534401895  -5.257956807
  H   -0.860748171  -0.382373855  -5.429267184
  O   -0.562098872   1.641852936  -5.375198213
  C   -0.170316118   2.088712516  -4.057885523
  H    0.852145291   1.661275863  -3.862025612
  C   -2.066673848   0.565669385  -3.813674975
  H   -3.168344012   0.726989618  -3.767283148
  C   -1.259768982   1.647296319  -3.077544772
  H   -0.821363740   1.219813923  -2.140657782
  H   -1.910686705   2.476939142  -2.739452719
  O   -1.677041010  -0.666655830  -3.167069862
  O   -2.276438085  -2.145835855  -5.215937218
  O   -4.920896005  -2.384952774  -6.031868536
  N   -0.050501153   3.571063887  -4.174023695
  C   -0.011873628   4.326393596  -5.339380022
  C    0.267930428   5.676773902  -4.947714416
  N    0.404362130   5.740567789  -3.553565748
  C    0.225929805   4.501650476  -3.099705975
  N   -0.189867323   3.979568622  -6.677570682
  C   -0.062871981   5.024988284  -7.611055945
  N    0.197904879   6.282925124  -7.296961496
  C    0.388925583   6.686689918  -5.956330883
  H   -0.196194426   4.763926438  -8.685061453
  N    0.677398947   7.974925853  -5.719238426
  H    0.756290822   8.653103088  -6.479107711
  H    0.819468843   8.318049010  -4.768089333
  H    0.274080052   4.173458878  -2.064217176
  P   -2.787956716  -1.882055523  -3.092400821
  O   -1.744446553  -3.129525435  -3.116948897
  C   -2.283603478  -4.438938445  -2.805400352
  H   -3.338565532  -4.561877013  -3.115818266
  H   -1.652694213  -5.103667086  -3.438855250
  C   -2.111165356  -4.717317560  -1.304237312
  H   -2.473855262  -3.876107033  -0.658222147
  O   -3.003162421  -5.829635949  -1.020671874
  C   -2.263731468  -7.011539863  -0.683641840
  H   -2.863601745  -7.490179288   0.130634357
  C   -0.686870147  -5.165752527  -0.885908425
  H    0.035630137  -5.155236928  -1.746899692
  C   -0.864117175  -6.562829740  -0.263545592
  H   -0.050991450  -7.253656263  -0.577649419
  H   -0.796330568  -6.531189319   0.846631678
  O   -0.278443313  -4.173465457   0.075202972
  O   -4.058806972  -1.683497785  -3.893536214
  O   -3.214612263  -1.902324732  -1.511317507
  N   -2.292897593  -7.926460451  -1.881710514
  C   -1.307860415  -7.869169255  -2.908419691
  N   -1.427565615  -8.821339360  -3.951701566
  C   -2.542361491  -9.706379199  -4.129493762
  C   -3.538620423  -9.658038849  -3.052084827
  C   -3.395500005  -8.807839134  -2.004705145
  O   -0.399651404  -7.054402115  -2.927884949
  H   -0.623348884  -8.884363134  -4.599631046
  O   -2.580204158 -10.370878243  -5.150413634
  C   -4.686463089 -10.596527229  -3.182394518
  H   -5.356487337 -10.593754216  -2.311660997
  H   -5.299146289 -10.361999632  -4.068100024
  H   -4.337258771 -11.637318648  -3.309441100
  H   -4.136393174  -8.758877725  -1.192386879
  P    1.242101658  -4.332505632   0.709578570
  O    1.707807024  -2.762922625   0.625411476
  C    2.959360229  -2.467779755  -0.040194618
  H    3.322338593  -1.600646393   0.556791441
  H    3.693194639  -3.299229272   0.043583490
  C    2.743298225  -2.082392297  -1.508259672
  H    3.315049040  -1.155605501  -1.767813621
  O    3.371451615  -3.132033706  -2.307633131
  C    2.510273190  -3.506353431  -3.402989657
  H    2.922856466  -3.025688073  -4.326490560
  C    1.276441240  -1.956607230  -1.976768222
  H    0.529722710  -1.983200439  -1.150704860
  C    1.093304159  -3.052338193  -3.029628565
  H    0.470374170  -3.890474706  -2.652408402
  H    0.539587149  -2.681595055  -3.922998746
  O    1.176218470  -0.644702139  -2.571379277
  O    2.095665279  -5.365605880   0.109714799
  O    0.886921154  -4.481995469   2.286799075
  N    2.606448902  -4.991286838  -3.558496531
  C    2.325801604  -5.542687455  -4.870861146
  N    2.297364966  -6.913719976  -5.033052881
  C    2.533326148  -7.739226266  -3.959628280
  C    2.916310474  -7.201120482  -2.683802966
  C    2.941120854  -5.842072197  -2.505897429
  O    2.103054141  -4.775140645  -5.806195326
  N    2.346269984  -9.077224380  -4.174292562
  H    2.621776119  -9.766879366  -3.492441127
  H    2.075189332  -9.418068447  -5.096309332
  H   -0.503485714  -2.009086397  -5.218441146
  H    3.223875100  -5.366852539  -1.543689614
  H    3.168745037  -7.861318647  -1.854749259
  H    0.424531056  -0.655348160  -3.203061484
  H   -5.412683480  -2.240828904  -5.130606508
  H   -4.121267456  -1.582021263  -1.257021693
  H    0.467227484  -3.701896628   2.751309364
  H    2.059815139  -7.037545456  -6.969791047
  H   -0.357849724   2.992115523  -6.924189115

