%mem=64gb
%nproc=28       
%Chk=snap_9.chk
# opt b3lyp/6-31g(d,p)  scf=(xqc, tight)  pop=min    

tetra snap_9 

2     1 
  O    2.000036111  -3.642726736  -7.583523162
  C    2.119593566  -2.599709118  -8.561792332
  H    2.887814450  -2.993271888  -9.264608286
  H    2.501808547  -1.684227733  -8.068712011
  C    0.803654956  -2.329847184  -9.299217082
  H    0.768156659  -1.289149941  -9.701040971
  O    0.790698019  -3.174077315 -10.501976567
  C   -0.398483279  -3.945629807 -10.570371052
  H   -0.676134583  -4.008719157 -11.652134271
  C   -0.497349851  -2.691733058  -8.539464096
  H   -0.310671626  -3.449656259  -7.724563189
  C   -1.407937854  -3.306114685  -9.609429308
  H   -2.012945232  -2.521023102 -10.112686402
  H   -2.145200986  -4.013847402  -9.185170081
  O   -1.102486963  -1.470486645  -8.042113775
  N   -0.046774660  -5.341180699 -10.103303536
  C   -0.439625041  -6.541164828 -10.734970428
  C    0.045656385  -7.608254020  -9.928199928
  N    0.725843885  -7.041591500  -8.831267449
  C    0.666597600  -5.690881291  -8.943292333
  N   -1.145437626  -6.674772910 -11.896749973
  C   -1.355492554  -7.976888568 -12.291915481
  N   -0.913601361  -9.093679876 -11.548787688
  C   -0.176728438  -8.987584249 -10.289401973
  N   -2.048314436  -8.175974503 -13.457247123
  H   -2.350596807  -7.372732085 -14.005411257
  H   -2.203424601  -9.090067912 -13.857073125
  O    0.135186546 -10.008445129  -9.734797391
  H    1.126543242  -4.927977705  -8.219139501
  H   -1.098523899 -10.053270478 -11.878415770
  P   -0.884818231  -1.375798106  -6.412823339
  O   -1.329427324   0.183421793  -6.122994383
  C   -0.731827538   0.761782731  -4.931402330
  H   -0.368419705   1.755152793  -5.287726166
  H    0.140246330   0.175098069  -4.563549482
  C   -1.789139850   0.953117419  -3.837834258
  H   -1.335172649   0.855388657  -2.814364808
  O   -2.172465253   2.364865102  -3.849483995
  C   -3.524111501   2.532633860  -4.252860243
  H   -3.936951105   3.317586539  -3.577519434
  C   -3.099581481   0.133843089  -3.983968626
  H   -3.090077277  -0.614931608  -4.814086578
  C   -4.219165929   1.175314999  -4.167312394
  H   -4.895118520   1.125217318  -3.275234511
  H   -4.878465298   0.942510916  -5.023334917
  O   -3.440174221  -0.523501958  -2.752562741
  O    0.469448565  -1.787481032  -5.958513711
  O   -2.147535232  -2.208785252  -5.851310526
  N   -3.485834873   3.074217509  -5.655247084
  C   -3.528905707   4.415928351  -6.032379964
  C   -3.252465637   4.461576726  -7.438141929
  N   -3.008171603   3.162102736  -7.910386612
  C   -3.129436203   2.354286175  -6.858536497
  N   -3.801551580   5.584924030  -5.320179582
  C   -3.781790473   6.786519766  -6.058838115
  N   -3.531589720   6.868762583  -7.353101035
  C   -3.247921339   5.718515207  -8.121607379
  H   -3.996849734   7.724796261  -5.497977028
  N   -2.990113112   5.879849769  -9.429423443
  H   -2.992281829   6.803606073  -9.864027304
  H   -2.787314357   5.079163361 -10.027665031
  H   -2.972624270   1.271419036  -6.847897710
  P   -2.486542241  -1.784436638  -2.253609403
  O   -1.597410025  -0.878834546  -1.215212748
  C   -0.347096702  -1.440090710  -0.751797106
  H    0.330263520  -1.628493591  -1.618239706
  H    0.067792847  -0.626801494  -0.120145938
  C   -0.672600072  -2.700424098   0.047940514
  H   -1.212361058  -2.490828707   1.004570867
  O   -1.655459759  -3.408023040  -0.781202022
  C   -1.188007561  -4.761495484  -1.118654908
  H   -2.062512168  -5.403125697  -0.842325368
  C    0.514878420  -3.659617024   0.275396119
  H    1.474846406  -3.293206162  -0.166203790
  C    0.071436277  -5.011304254  -0.295946497
  H    0.893884614  -5.480222062  -0.897497693
  H   -0.121871626  -5.750271975   0.517496975
  O    0.610537066  -3.711062742   1.719317524
  O   -1.720017131  -2.391354929  -3.382338023
  O   -3.690672020  -2.608064694  -1.555663825
  N   -0.969090993  -4.815792331  -2.584025291
  C    0.105853833  -4.085241369  -3.191412608
  N    0.222022531  -4.220591432  -4.596099953
  C   -0.591779207  -5.065277557  -5.402788907
  C   -1.631823822  -5.802217703  -4.699238536
  C   -1.789273250  -5.667468439  -3.353957616
  O    0.894264536  -3.409969438  -2.554783959
  H    0.912460997  -3.594294591  -5.060972316
  O   -0.348823368  -5.068168194  -6.610174581
  C   -2.484328981  -6.730226568  -5.495859332
  H   -2.209999819  -6.722598997  -6.561762736
  H   -2.376399244  -7.769103853  -5.142180118
  H   -3.549327682  -6.463023663  -5.438142390
  H   -2.552794849  -6.236322732  -2.799956278
  P    1.961358259  -4.386596858   2.358516239
  O    1.867033962  -5.869239398   1.645167447
  C    2.779587041  -6.881403461   2.142036511
  H    3.353113871  -6.541549601   3.028274836
  H    2.105589899  -7.709289802   2.455748339
  C    3.709851450  -7.347441488   1.015276604
  H    4.681576638  -7.705069367   1.436507634
  O    3.161504559  -8.561447843   0.422136844
  C    2.570025053  -8.296939015  -0.859870730
  H    2.931872589  -9.123170326  -1.518695375
  C    3.914263428  -6.359298125  -0.161874342
  H    3.721575604  -5.289963709   0.098140722
  C    3.000263759  -6.888265191  -1.280505569
  H    2.134229116  -6.199505226  -1.433269658
  H    3.509167286  -6.888770911  -2.264515685
  O    5.278304871  -6.317454337  -0.542612581
  O    2.145881491  -4.283562805   3.798928246
  O    3.133962430  -3.715949444   1.404988252
  N    1.077787256  -8.460436702  -0.684573035
  C    0.142378015  -7.907060476  -1.676671397
  N   -1.215589070  -8.030945795  -1.427942934
  C   -1.657037253  -8.750072181  -0.353777888
  C   -0.751157535  -9.348436591   0.585859213
  C    0.598119490  -9.184996597   0.395870264
  O    0.618635039  -7.333793470  -2.640493392
  N   -3.022736147  -8.823841702  -0.179918874
  H   -3.418503300  -9.462406315   0.494497629
  H   -3.639386182  -8.525213204  -0.923517758
  H    1.549520860  -3.289684704  -6.757871859
  H    1.342486642  -9.622765558   1.085350268
  H   -1.124301980  -9.923550410   1.430504106
  H    5.608820271  -7.185356339  -0.862703094
  H   -2.001437082  -2.708128378  -4.924027016
  H   -3.547005997  -2.957996757  -0.616162776
  H    3.870463443  -3.211113972   1.837173292
  H    1.147307988  -7.582189676  -8.081710385
  H   -3.968567750   5.574381321  -4.310955756

