%mem=64gb
%nproc=28       
%Chk=snap_123.chk
# opt b3lyp/6-31g(d,p)  scf=(xqc, tight)  pop=min    

tetra snap_123 

2     1 
  O    2.791753602  -4.804827407  -7.409613297
  C    2.496854431  -3.562265750  -8.051585986
  H    3.061681476  -3.659044543  -9.009915264
  H    2.917807246  -2.732594719  -7.451716495
  C    1.014457398  -3.323919348  -8.339491059
  H    0.871664461  -2.306529032  -8.787201714
  O    0.613007472  -4.246713110  -9.409220233
  C   -0.623469192  -4.876819694  -9.102671726
  H   -1.208644370  -4.918886390 -10.052314775
  C   -0.001928313  -3.537190871  -7.187145423
  H    0.382720100  -4.202769552  -6.380883152
  C   -1.227141369  -4.129475846  -7.910200016
  H   -1.919119489  -3.327612481  -8.242858141
  H   -1.854598658  -4.771713341  -7.252957966
  O   -0.246031814  -2.220939304  -6.668543135
  N   -0.314158915  -6.299398794  -8.689866868
  C   -1.256091075  -7.351262471  -8.631853784
  C   -0.700832661  -8.349900626  -7.780269671
  N    0.555577356  -7.895869852  -7.343775299
  C    0.774932247  -6.671914630  -7.881905931
  N   -2.450551638  -7.449913678  -9.292099525
  C   -3.154902905  -8.594982077  -9.023578031
  N   -2.707567565  -9.605106625  -8.138331137
  C   -1.442392114  -9.530881263  -7.417089603
  N   -4.384123320  -8.737814470  -9.631701282
  H   -4.658948534  -8.051038163 -10.333316225
  H   -4.861696864  -9.627238117  -9.672485864
  O   -1.169935127 -10.415440761  -6.641920101
  H    1.704879314  -6.017283441  -7.768890547
  H   -3.309194219 -10.410310231  -7.913270353
  P   -1.029598975  -2.109182810  -5.204971472
  O   -1.853527856  -0.711566379  -5.539431045
  C   -1.274414404   0.506145795  -5.047790511
  H   -1.549470465   1.237409054  -5.837066971
  H   -0.171501059   0.460138738  -4.963991668
  C   -1.934467346   0.860693864  -3.702718142
  H   -1.340475839   0.522624016  -2.816373603
  O   -1.892678353   2.316467774  -3.564100132
  C   -3.202769045   2.885812003  -3.632765198
  H   -3.228039272   3.659885362  -2.821963001
  C   -3.427760877   0.445129639  -3.644162179
  H   -3.739799115  -0.174072023  -4.523565731
  C   -4.222001496   1.758389095  -3.520435707
  H   -4.728792831   1.772902802  -2.519594501
  H   -5.048890801   1.796694956  -4.251531978
  O   -3.754246731  -0.259156971  -2.436830353
  O   -0.058632244  -2.034946046  -4.089855066
  O   -2.098199026  -3.301472857  -5.461847049
  N   -3.257716475   3.600041194  -4.958199403
  C   -2.159886193   4.118331294  -5.636827572
  C   -2.663176367   4.778225366  -6.804178068
  N   -4.059576434   4.664262240  -6.837417491
  C   -4.406237161   3.973906506  -5.750108382
  N   -0.794619533   4.078213991  -5.353123330
  C    0.046477320   4.734233004  -6.269379945
  N   -0.372523355   5.356836450  -7.359254776
  C   -1.744080353   5.429111072  -7.689019665
  H    1.138836968   4.717866968  -6.055458903
  N   -2.096524763   6.097589078  -8.797268068
  H   -1.402640591   6.551992784  -9.392003891
  H   -3.076293477   6.185085144  -9.069921211
  H   -5.420063403   3.718409708  -5.452544368
  P   -2.992897764  -1.705079029  -2.167327276
  O   -1.861713326  -1.063979174  -1.178866835
  C   -0.680847437  -1.879022381  -0.949583669
  H   -0.217327236  -2.167430797  -1.925061737
  H    0.003237119  -1.188440065  -0.411628613
  C   -1.141323981  -3.045433590  -0.086030065
  H   -1.447628070  -2.729617636   0.939986166
  O   -2.381367228  -3.479364685  -0.749038299
  C   -2.406454636  -4.938633492  -0.911749334
  H   -3.409924314  -5.214828069  -0.499766423
  C   -0.233129312  -4.287533645  -0.041994630
  H    0.502939414  -4.302107652  -0.898652003
  C   -1.222425828  -5.467685916  -0.111428875
  H   -0.747888096  -6.379060995  -0.541262003
  H   -1.532896532  -5.777697594   0.911470713
  O    0.448537786  -4.227262303   1.214424368
  O   -2.504050400  -2.320289283  -3.440327601
  O   -4.259411292  -2.435623473  -1.464080996
  N   -2.379321141  -5.251020675  -2.365521860
  C   -1.162525501  -5.545837689  -3.071054970
  N   -1.306483419  -6.026429343  -4.388427801
  C   -2.551173940  -6.159740697  -5.083969807
  C   -3.726131981  -5.671811809  -4.341123036
  C   -3.618485455  -5.259443024  -3.053959230
  O   -0.062033576  -5.418347946  -2.564956367
  H   -0.425078641  -6.291341988  -4.886316057
  O   -2.514524706  -6.621992687  -6.206902816
  C   -5.019395900  -5.648409187  -5.078153978
  H   -5.744521133  -6.362757755  -4.656767161
  H   -5.487248995  -4.652897423  -5.065140539
  H   -4.889097320  -5.923861213  -6.139993805
  H   -4.489391831  -4.897210816  -2.484642220
  P    1.770909546  -5.236154823   1.313195429
  O    2.890425102  -4.314976341   0.524105570
  C    3.553449409  -4.958901691  -0.589187547
  H    4.565775756  -5.238883278  -0.222569898
  H    3.025326288  -5.873153561  -0.935367062
  C    3.657506891  -3.892803020  -1.689824372
  H    4.243635153  -3.001567941  -1.365099125
  O    4.469315256  -4.525493581  -2.737965184
  C    3.711839214  -4.713447360  -3.933515621
  H    4.446057775  -4.577304900  -4.763443015
  C    2.328924674  -3.488776388  -2.365502231
  H    1.450228978  -4.071515143  -1.975977346
  C    2.548012534  -3.731042914  -3.869247213
  H    1.605306043  -4.079825102  -4.340981774
  H    2.799268511  -2.781386359  -4.384469148
  O    2.099909719  -2.109493015  -2.082417906
  O    1.592646094  -6.595598495   0.797629008
  O    2.140591931  -5.002541693   2.869405194
  N    3.260124779  -6.167587422  -3.944814653
  C    2.105383173  -6.611108046  -4.683987919
  N    1.736605905  -7.935174436  -4.665250991
  C    2.431736840  -8.837373840  -3.891540853
  C    3.591021249  -8.417589304  -3.145917199
  C    3.980124762  -7.106744264  -3.200124295
  O    1.473366334  -5.795580438  -5.379621986
  N    1.985891087 -10.124544968  -3.918512466
  H    2.422045313 -10.851741880  -3.368929267
  H    1.145308679 -10.376187829  -4.431720121
  H    2.488249981  -4.831947992  -6.458543524
  H    4.876305888  -6.734117367  -2.669989441
  H    4.152402081  -9.137475242  -2.548131118
  H    1.412444093  -1.754902254  -2.718333731
  H   -2.716407389  -3.523961614  -4.661759431
  H   -4.250101791  -2.518353090  -0.458739015
  H    2.310461550  -4.061444784   3.175044313
  H    1.105833255  -8.348460783  -6.603381537
  H   -0.468344405   3.596184960  -4.500239780

