%mem=64gb
%nproc=28       
%Chk=snap_115.chk
# opt b3lyp/6-31g(d,p)  scf=(xqc, tight)  pop=min    

tetra snap_115 

2     1 
  O    3.414355086  -3.422320189  -6.499751938
  C    2.809655848  -4.242993022  -7.496424463
  H    2.647498125  -5.210922530  -6.963617417
  H    3.506156255  -4.407663722  -8.342092514
  C    1.490438397  -3.628887406  -7.983330197
  H    1.625349564  -2.612572323  -8.418127011
  O    1.069614833  -4.476417108  -9.108951804
  C   -0.270114925  -4.921714937  -8.947610848
  H   -0.744113117  -4.876433931  -9.957909280
  C    0.315645850  -3.641293919  -6.971867604
  H    0.517770692  -4.304173936  -6.096914853
  C   -0.889847952  -4.103116273  -7.817126253
  H   -1.446103333  -3.227571019  -8.215543430
  H   -1.645956506  -4.658946708  -7.217510254
  O    0.161770895  -2.277415226  -6.544491357
  N   -0.213281242  -6.382395389  -8.543539131
  C   -1.284659153  -7.299010921  -8.637024767
  C   -0.955306957  -8.404565581  -7.796580615
  N    0.283899785  -8.139323909  -7.196065372
  C    0.714513501  -6.932246498  -7.642670748
  N   -2.413218047  -7.193449893  -9.401689716
  C   -3.294915283  -8.236336093  -9.264423197
  N   -3.067816455  -9.349118611  -8.422130475
  C   -1.874932916  -9.498802290  -7.596581007
  N   -4.475028999  -8.166347212  -9.968986081
  H   -4.604520821  -7.405937777 -10.634306736
  H   -5.094942880  -8.958600551 -10.063963486
  O   -1.794023012 -10.466599968  -6.882969157
  H    1.660344132  -6.433727150  -7.363521721
  H   -3.783119925 -10.082335100  -8.313872306
  P   -0.734233607  -2.033803238  -5.166011302
  O   -1.645533775  -0.766820625  -5.728386300
  C   -1.225909035   0.555751123  -5.361382101
  H   -1.617231879   1.174505852  -6.197625611
  H   -0.124453272   0.658729591  -5.322320387
  C   -1.887627630   0.940413061  -4.025571887
  H   -1.240128815   0.723622721  -3.140211239
  O   -1.992028030   2.399213812  -3.985292152
  C   -3.358356250   2.829468241  -3.987391518
  H   -3.456705954   3.507872386  -3.099037274
  C   -3.327323754   0.381392065  -3.898016049
  H   -3.558782996  -0.398180573  -4.668839892
  C   -4.262059336   1.599716653  -3.985820174
  H   -4.946353795   1.593960134  -3.100308754
  H   -4.925464863   1.520619005  -4.867444784
  O   -3.569561440  -0.143231463  -2.581955687
  O    0.127388304  -1.750911966  -3.999037380
  O   -1.703292513  -3.326520414  -5.344674986
  N   -3.513032613   3.667040130  -5.227249119
  C   -2.497625527   4.362748055  -5.873029237
  C   -3.113919271   5.133923078  -6.912041718
  N   -4.497649396   4.911679955  -6.897709162
  C   -4.730463791   4.055480531  -5.902477741
  N   -1.121409369   4.402923659  -5.653646301
  C   -0.388992460   5.265916033  -6.488160055
  N   -0.913827442   5.998102868  -7.457872819
  C   -2.299710914   5.981863388  -7.729856448
  H    0.708722097   5.327627968  -6.314631122
  N   -2.762045517   6.755408384  -8.723888625
  H   -2.138520237   7.350476620  -9.270522634
  H   -3.757254001   6.784371372  -8.950701652
  H   -5.703065250   3.681931671  -5.592686123
  P   -2.829838179  -1.579031911  -2.211570893
  O   -1.750798518  -0.953569258  -1.165203285
  C   -0.577813081  -1.785550679  -0.925774723
  H   -0.098541110  -2.081434643  -1.890728425
  H    0.110029938  -1.103793675  -0.382418869
  C   -1.074877707  -2.941417266  -0.067132980
  H   -1.416126347  -2.610958721   0.943923090
  O   -2.292563800  -3.380394553  -0.769198079
  C   -2.337262225  -4.843943195  -0.874590083
  H   -3.346183701  -5.094004628  -0.459928035
  C   -0.178046731  -4.189216943   0.026565724
  H    0.579036913  -4.228919332  -0.810214028
  C   -1.169728159  -5.366706007  -0.046676827
  H   -0.689735445  -6.286767410  -0.452770866
  H   -1.497896696  -5.664823266   0.974576903
  O    0.465901881  -4.098177123   1.298418594
  O   -2.295461451  -2.226153298  -3.451775883
  O   -4.127627493  -2.279627730  -1.531780909
  N   -2.313281578  -5.200389151  -2.319689876
  C   -1.111329141  -5.588700890  -3.002082478
  N   -1.269048189  -6.078852677  -4.315617416
  C   -2.503561707  -6.104602112  -5.041766417
  C   -3.658054943  -5.556186358  -4.310447861
  C   -3.542070752  -5.145429940  -3.023578341
  O   -0.011769981  -5.526929554  -2.482035199
  H   -0.403957904  -6.416837114  -4.796801601
  O   -2.473429964  -6.539315899  -6.176461881
  C   -4.944674638  -5.475918225  -5.055222844
  H   -4.790935650  -5.574862651  -6.143979819
  H   -5.632561470  -6.285225261  -4.759648227
  H   -5.466765935  -4.522371708  -4.890865613
  H   -4.398730539  -4.733425300  -2.467045217
  P    1.767763531  -5.120671592   1.495964298
  O    2.878122020  -4.347179978   0.553423974
  C    3.486512355  -5.144736949  -0.491166881
  H    4.464995825  -5.492446200  -0.094224878
  H    2.869525235  -6.024538040  -0.769336273
  C    3.692990156  -4.175915742  -1.665326811
  H    4.356599620  -3.320277628  -1.398760371
  O    4.444813664  -4.943523031  -2.662753522
  C    3.671658964  -5.150135090  -3.844303300
  H    4.394933415  -5.072365148  -4.690989099
  C    2.400902321  -3.695745702  -2.364928331
  H    1.476256269  -4.123788972  -1.892000885
  C    2.538487354  -4.130541853  -3.828487541
  H    1.580968036  -4.515422238  -4.231526177
  H    2.792146547  -3.270183338  -4.493038916
  O    2.340814768  -2.281273209  -2.205026803
  O    1.534547997  -6.533079987   1.191774004
  O    2.199824340  -4.670333078   2.988100452
  N    3.175844978  -6.593794987  -3.788412809
  C    2.065569866  -7.034157887  -4.592707982
  N    1.640046969  -8.346466629  -4.539481551
  C    2.249269032  -9.225125855  -3.673142100
  C    3.368282719  -8.808299162  -2.868899828
  C    3.807869233  -7.513697889  -2.953376060
  O    1.517782793  -6.232323191  -5.364693796
  N    1.759638234 -10.498893534  -3.644434799
  H    2.134601077 -11.199419147  -3.020576999
  H    0.953579100 -10.762454320  -4.198749311
  H    3.795609643  -2.605521716  -6.895115912
  H    4.678308457  -7.145823698  -2.379104258
  H    3.861973050  -9.515557300  -2.201301801
  H    1.783497181  -1.874001758  -2.927733311
  H   -2.355404281  -3.505847631  -4.558977063
  H   -4.097777617  -2.444914987  -0.535360221
  H    2.419800645  -3.702062573   3.138063379
  H    0.710891287  -8.686228988  -6.432941404
  H   -0.712470592   3.830350618  -4.897377770

