%mem=64gb
%nproc=28       
%Chk=snap_111.chk
# opt b3lyp/6-31g(d,p)  scf=(xqc, tight)  pop=min    

tetra snap_111 

2     1 
  O    3.105756367  -5.240712471  -6.835143212
  C    3.067461676  -3.962052377  -7.471918485
  H    3.764613705  -4.109576413  -8.330509188
  H    3.481125114  -3.198383416  -6.783327870
  C    1.689118796  -3.541165305  -7.982834490
  H    1.745832003  -2.516735567  -8.433278430
  O    1.338746644  -4.411793947  -9.113283831
  C    0.003027291  -4.882032294  -9.002276194
  H   -0.433162404  -4.855079795 -10.029708901
  C    0.492417250  -3.621744187  -7.002390747
  H    0.665749013  -4.326362047  -6.154184858
  C   -0.678908180  -4.062260840  -7.901770531
  H   -1.208864540  -3.184522515  -8.325776318
  H   -1.463130023  -4.620301915  -7.343866135
  O    0.329176168  -2.278263773  -6.514725856
  N    0.066302197  -6.329454937  -8.567584636
  C   -1.012039702  -7.238950501  -8.640730590
  C   -0.700328207  -8.311474465  -7.757173773
  N    0.555701395  -8.046583849  -7.180162059
  C    0.998674268  -6.857294194  -7.656152438
  N   -2.132222547  -7.152454846  -9.421464076
  C   -3.026024850  -8.177034886  -9.245263781
  N   -2.816271758  -9.258128679  -8.357268630
  C   -1.631609477  -9.383223157  -7.515193457
  N   -4.205507247  -8.118744672  -9.955614780
  H   -4.314930334  -7.389408762 -10.657764460
  H   -4.821970146  -8.913590066 -10.038889799
  O   -1.572349847 -10.315171466  -6.750827451
  H    1.985477872  -6.324277690  -7.412029656
  H   -3.544269311  -9.971933338  -8.220023463
  P   -0.612606640  -2.079414076  -5.163873697
  O   -1.598543251  -0.872309487  -5.723661687
  C   -1.196410314   0.477421250  -5.447072631
  H   -1.680937362   1.046936129  -6.269940376
  H   -0.099935149   0.616736894  -5.512207899
  C   -1.753689318   0.893169801  -4.073412596
  H   -1.045317667   0.682226044  -3.234874414
  O   -1.840706422   2.353976873  -4.063552242
  C   -3.192001887   2.797090299  -3.874078439
  H   -3.171115140   3.426687597  -2.945493538
  C   -3.183683888   0.348727448  -3.825340325
  H   -3.484506072  -0.428183978  -4.574519432
  C   -4.108357219   1.576608007  -3.826725970
  H   -4.729565247   1.564920926  -2.896725272
  H   -4.831196042   1.521114009  -4.663071218
  O   -3.312125345  -0.168128354  -2.489546833
  O    0.252918917  -1.763795638  -4.002411474
  O   -1.509209457  -3.423122330  -5.324476583
  N   -3.494503564   3.696997743  -5.036906952
  C   -2.572454368   4.367210705  -5.831286163
  C   -3.320250579   5.218254303  -6.709474162
  N   -4.689445743   5.070270821  -6.448463383
  C   -4.789882610   4.181719614  -5.460587462
  N   -1.179749101   4.321043175  -5.872774261
  C   -0.562007590   5.170557509  -6.809396990
  N   -1.209675877   5.975166113  -7.636381952
  C   -2.619914479   6.059158997  -7.633648393
  H    0.550275978   5.152770457  -6.851786651
  N   -3.210552101   6.914134927  -8.481951730
  H   -2.667274233   7.499384877  -9.118081232
  H   -4.226919356   7.013149696  -8.506417472
  H   -5.710072720   3.843439719  -4.991056867
  P   -2.683741839  -1.671468123  -2.204619995
  O   -1.581624559  -1.186486761  -1.105975080
  C   -0.437224637  -2.078052348  -0.976460178
  H    0.004908878  -2.288843427  -1.980398468
  H    0.275700007  -1.471203200  -0.377884243
  C   -0.961821808  -3.288773365  -0.213945862
  H   -1.226284165  -3.029751128   0.841404119
  O   -2.238295820  -3.583060434  -0.880830451
  C   -2.428000922  -5.035998051  -1.026130944
  H   -3.436176883  -5.206541287  -0.573342473
  C   -0.162923917  -4.607030102  -0.266399226
  H    0.493036850  -4.692724695  -1.178826402
  C   -1.269718013  -5.680958765  -0.264835532
  H   -0.912150021  -6.641475081  -0.698529194
  H   -1.559933997  -5.938148929   0.777062998
  O    0.579844761  -4.656504958   0.956547007
  O   -2.195993057  -2.286526671  -3.479214327
  O   -4.015742903  -2.329461510  -1.545387700
  N   -2.491918250  -5.338467935  -2.479385026
  C   -1.357384350  -5.837551101  -3.200631056
  N   -1.563831551  -6.208495889  -4.540146237
  C   -2.796465285  -6.055172016  -5.257495479
  C   -3.884642858  -5.447567188  -4.465054914
  C   -3.718724051  -5.121227266  -3.160126693
  O   -0.263058276  -5.950265488  -2.672955112
  H   -0.714434186  -6.564133117  -5.032040296
  O   -2.814074059  -6.405757572  -6.417937870
  C   -5.164540279  -5.222462429  -5.190738049
  H   -5.873191920  -4.589538661  -4.639847452
  H   -4.992048226  -4.744239030  -6.170638584
  H   -5.674524513  -6.180364509  -5.396624040
  H   -4.521222742  -4.657208118  -2.566108152
  P    2.120094643  -5.260397064   0.849189608
  O    2.841266547  -3.870290357   0.342260238
  C    4.170989707  -3.963090122  -0.232665440
  H    4.716295198  -3.150674477   0.299392975
  H    4.666029399  -4.934816343  -0.028804078
  C    4.112453963  -3.690548531  -1.740375282
  H    5.011584503  -3.120585827  -2.087615744
  O    4.229204666  -4.979379562  -2.422743995
  C    3.175411920  -5.127159407  -3.386038169
  H    3.650695040  -5.002799570  -4.395489837
  C    2.804249484  -3.021583204  -2.222264250
  H    2.203546050  -2.623390281  -1.376599660
  C    2.094207658  -4.093384694  -3.055096856
  H    1.239657568  -4.557666226  -2.505337486
  H    1.637687001  -3.666045360  -3.966665006
  O    3.191469772  -1.914428690  -3.042236595
  O    2.364939410  -6.462845972   0.051431192
  O    2.461475315  -5.340289715   2.430982560
  N    2.664707639  -6.535395567  -3.303025292
  C    1.706420098  -6.943862613  -4.302040679
  N    1.248644119  -8.236436598  -4.333086245
  C    1.596851303  -9.100171344  -3.312345932
  C    2.482276649  -8.685527840  -2.263874540
  C    2.999919934  -7.412700303  -2.271824368
  O    1.352887296  -6.106650495  -5.154338959
  N    1.050548777 -10.349838290  -3.379712289
  H    1.269909301 -11.064623218  -2.702014235
  H    0.422338166 -10.603440836  -4.134626284
  H    2.658881027  -5.237861507  -5.936763596
  H    3.698996723  -7.038116243  -1.499274739
  H    2.731991654  -9.358650280  -1.442320153
  H    2.384546201  -1.551290333  -3.501492668
  H   -2.185251558  -3.596030186  -4.558520829
  H   -4.006730718  -2.478993270  -0.547291635
  H    2.186145038  -4.577227108   3.017561875
  H    0.950633297  -8.575494868  -6.389678906
  H   -0.674330537   3.710452752  -5.210579398

