%mem=64gb
%nproc=28       
%Chk=snap_38.chk
# opt b3lyp/6-31g(d,p)  scf=(xqc, tight)  pop=min    

tetra snap_38 

2     1 
  O    1.724824520  -3.841586053  -6.310248702
  C    2.055171132  -3.483594741  -7.646067736
  H    2.340428824  -4.445075047  -8.119112422
  H    2.941112034  -2.818254235  -7.640709700
  C    0.870337857  -2.831907607  -8.376727384
  H    1.018508181  -1.739043980  -8.539817542
  O    0.857812975  -3.387865512  -9.731710446
  C   -0.384767205  -4.002329131 -10.028781686
  H   -0.607674303  -3.739535164 -11.095923667
  C   -0.530799065  -3.115580099  -7.775556895
  H   -0.505287372  -3.895041223  -6.981527369
  C   -1.392545161  -3.567689109  -8.969064420
  H   -2.007119208  -2.707830013  -9.325123031
  H   -2.135772302  -4.337618612  -8.686219941
  O   -1.057245547  -1.869264370  -7.307435666
  N   -0.151567206  -5.499490674  -9.991252176
  C    0.116657355  -6.301024456 -11.125084330
  C    0.365178886  -7.619592986 -10.646812973
  N    0.260087190  -7.595369883  -9.245380987
  C   -0.040530230  -6.326892792  -8.862146489
  N    0.116754710  -5.915506186 -12.433053656
  C    0.404988641  -6.921940817 -13.329938037
  N    0.667902919  -8.254214075 -12.941504780
  C    0.665868848  -8.706050957 -11.551658649
  N    0.425533506  -6.589908599 -14.657299192
  H    0.252005260  -5.625858282 -14.936803435
  H    0.647672760  -7.248918727 -15.389456340
  O    0.897429725  -9.864601400 -11.331818556
  H   -0.218298494  -5.991162254  -7.802889632
  H    0.875195408  -8.979295092 -13.645886222
  P   -1.126122064  -1.716971045  -5.646258697
  O   -1.795728787  -0.205281560  -5.694124884
  C   -0.857160133   0.860410003  -5.409906105
  H   -0.924944024   1.536518488  -6.290739207
  H    0.193873141   0.507032250  -5.311570098
  C   -1.322281078   1.570154376  -4.133711594
  H   -0.509374548   1.648760150  -3.369017856
  O   -1.569482589   2.968879049  -4.496946485
  C   -2.903831680   3.348071978  -4.206579418
  H   -2.832959854   4.367890083  -3.765943801
  C   -2.643898571   1.026693370  -3.523327452
  H   -3.146097972   0.257089498  -4.161592145
  C   -3.522787335   2.272539765  -3.314393100
  H   -3.482526780   2.561925575  -2.234987818
  H   -4.592530202   2.076323894  -3.509293999
  O   -2.398529432   0.505119290  -2.214479744
  O    0.228428749  -1.835760620  -5.048997013
  O   -2.295859699  -2.821093939  -5.432629563
  N   -3.626532261   3.438221053  -5.526480495
  C   -4.142607297   4.575572473  -6.139440468
  C   -4.749943928   4.145653719  -7.365706897
  N   -4.571104152   2.762844654  -7.517351265
  C   -3.900992859   2.352919400  -6.440581252
  N   -4.161350245   5.921366595  -5.767593307
  C   -4.803521684   6.807179207  -6.657817223
  N   -5.391759931   6.446272936  -7.784202512
  C   -5.406857926   5.099033476  -8.206530879
  H   -4.812014678   7.885212991  -6.375572166
  N   -6.034812848   4.798521273  -9.354273109
  H   -6.496349233   5.515176038  -9.915115656
  H   -6.064348741   3.838836473  -9.699114660
  H   -3.562467845   1.332622319  -6.237640243
  P   -1.762537937  -1.031055283  -2.150274783
  O   -0.289318413  -0.529918950  -1.663018625
  C    0.772780204  -1.521509473  -1.636047282
  H    0.901332106  -1.993605611  -2.642064540
  H    1.668628245  -0.914260092  -1.395318104
  C    0.377897247  -2.493176662  -0.528095703
  H    0.228823192  -1.985816224   0.457585410
  O   -0.971276739  -2.911312140  -0.942908872
  C   -1.038535008  -4.359778443  -1.132735005
  H   -1.995121773  -4.640473205  -0.622400409
  C    1.225237028  -3.771797415  -0.364318509
  H    2.062317140  -3.846415348  -1.106094231
  C    0.219408046  -4.924193722  -0.478439716
  H    0.669892212  -5.765180688  -1.066468374
  H   -0.060432238  -5.383585577   0.506469689
  O    1.860839626  -3.615777060   0.917304133
  O   -1.840195270  -1.716156883  -3.480279861
  O   -2.792245544  -1.534823267  -1.007693276
  N   -1.147076123  -4.644015295  -2.589084645
  C    0.029733351  -4.641699718  -3.409941136
  N   -0.125095918  -5.139519935  -4.723192367
  C   -1.324820694  -5.695715136  -5.249740320
  C   -2.458000464  -5.733407865  -4.323452273
  C   -2.333075805  -5.267129767  -3.053324841
  O    1.102876868  -4.220750461  -3.019536776
  H    0.729322731  -5.089875718  -5.330033805
  O   -1.296048114  -6.059368009  -6.422580424
  C   -3.727199021  -6.333624437  -4.819375938
  H   -4.546779847  -5.600562078  -4.836878473
  H   -3.623047815  -6.722874091  -5.846107422
  H   -4.041799556  -7.185057604  -4.193315574
  H   -3.152266933  -5.351307504  -2.323060101
  P    2.107531414  -4.925289103   1.887055197
  O    3.191345050  -5.752093398   0.962775627
  C    3.464006741  -7.111433794   1.403294396
  H    4.411659274  -7.044420972   1.979700292
  H    2.652858464  -7.515836409   2.047433202
  C    3.636578080  -7.989646992   0.158974830
  H    4.544186728  -8.633549050   0.261201038
  O    2.556286629  -8.966373726   0.126070226
  C    1.635644307  -8.710195536  -0.947366471
  H    1.522004365  -9.691360382  -1.469633721
  C    3.600065830  -7.243598117  -1.198432328
  H    3.795400166  -6.148147238  -1.102625136
  C    2.225341023  -7.581046270  -1.799221997
  H    1.572503984  -6.677861401  -1.825603798
  H    2.306386457  -7.866935369  -2.865918579
  O    4.666589243  -7.665051699  -2.031316992
  O    0.947452265  -5.706234025   2.328177400
  O    2.996836214  -4.188550172   3.026955211
  N    0.313199027  -8.361748260  -0.312533611
  C   -0.764776045  -7.784757990  -1.131937714
  N   -1.942773035  -7.428324129  -0.501526881
  C   -2.136576850  -7.738969339   0.817988733
  C   -1.122964896  -8.385009922   1.604817420
  C    0.085747088  -8.666455140   1.024699229
  O   -0.519862294  -7.590188216  -2.311782653
  N   -3.336243685  -7.359939667   1.371706201
  H   -3.584143823  -7.636568345   2.309569191
  H   -4.081778909  -7.009738847   0.787519214
  H    1.545271377  -3.024209567  -5.734466963
  H    0.908852935  -9.142947135   1.583654767
  H   -1.297190603  -8.617924247   2.653606359
  H    4.631696845  -8.626417073  -2.228937824
  H   -2.487670203  -3.077887123  -4.455297829
  H   -2.426779841  -1.969978861  -0.171887888
  H    3.682599702  -3.523330850   2.728749443
  H    0.373794014  -8.412847221  -8.651660562
  H   -3.693899976   6.251825107  -4.920063706

