%mem=64gb
%nproc=28       
%Chk=snap_156.chk
# opt b3lyp/6-31g(d,p)  scf=(xqc, tight)  pop=min    

tetra snap_156 

2     1 
  O    1.885542115  -2.579945715  -4.820048508
  C    1.394393134  -3.670461778  -5.587010613
  H    0.851068811  -4.378948900  -4.932643819
  H    2.330278430  -4.167948170  -5.940498395
  C    0.564610922  -3.166252343  -6.775141797
  H    0.768631458  -2.084565147  -6.967299101
  O    1.062692651  -3.828958612  -7.988230997
  C    0.026972519  -4.512786627  -8.674774006
  H    0.205431326  -4.362398922  -9.766066100
  C   -0.955039865  -3.469409403  -6.715675074
  H   -1.241513901  -4.159695580  -5.892619119
  C   -1.308992829  -4.038825072  -8.097798343
  H   -1.763670017  -3.241680059  -8.729684252
  H   -2.090813839  -4.825187919  -8.054816162
  O   -1.688073885  -2.230305806  -6.609904296
  N    0.238484009  -5.983622397  -8.371199495
  C   -0.653227183  -7.041867306  -8.653520275
  C   -0.220373298  -8.151141099  -7.868327867
  N    0.941318737  -7.775241062  -7.182765243
  C    1.198608507  -6.475290189  -7.464587342
  N   -1.715591276  -7.052035505  -9.511609391
  C   -2.418550628  -8.235588361  -9.532992257
  N   -2.100768563  -9.357402620  -8.728026016
  C   -1.010575683  -9.353523378  -7.768585093
  N   -3.490291703  -8.313630353 -10.384595828
  H   -3.692458263  -7.534558097 -11.007362408
  H   -4.025499063  -9.158532132 -10.519248878
  O   -0.892613981 -10.291411169  -7.014608977
  H    2.041547296  -5.878849534  -7.065582615
  H   -2.720356126 -10.179731994  -8.703341352
  P   -1.991807715  -1.707823697  -5.074708030
  O   -2.870391093  -0.374390135  -5.461353440
  C   -2.119300860   0.672182854  -6.113484171
  H   -2.925123481   1.402805537  -6.343182911
  H   -1.690557755   0.303790642  -7.068328221
  C   -1.047054266   1.283710159  -5.196548485
  H   -0.056171700   0.758465941  -5.247812314
  O   -0.761416409   2.618162575  -5.733047642
  C   -1.058387379   3.636066216  -4.772199652
  H   -0.221675350   4.376040980  -4.858706098
  C   -1.495478096   1.481143527  -3.724521903
  H   -2.564636911   1.193451711  -3.558283053
  C   -1.228807569   2.965598511  -3.415735231
  H   -0.285029290   3.040914988  -2.814693328
  H   -2.001984041   3.401729371  -2.759903064
  O   -0.584725241   0.749404258  -2.883778638
  O   -0.673343905  -1.428092828  -4.367563359
  O   -2.917449355  -2.908486085  -4.514231999
  N   -2.320761615   4.294085511  -5.266260485
  C   -2.672105876   4.441000216  -6.604392020
  C   -3.900664599   5.176112249  -6.637191908
  N   -4.298662622   5.474062645  -5.326644043
  C   -3.368542658   4.955575611  -4.523703856
  N   -2.047884741   4.010672869  -7.775178332
  C   -2.681872257   4.366656650  -8.979490080
  N   -3.814014819   5.046811571  -9.058982536
  C   -4.491044138   5.495170489  -7.902691670
  H   -2.188301470   4.047847815  -9.925063515
  N   -5.631852809   6.182847256  -8.060675378
  H   -6.006137267   6.391869767  -8.987013986
  H   -6.152444469   6.533517459  -7.255024719
  H   -3.356014026   5.013758804  -3.438081024
  P   -1.205559754  -0.656860107  -2.277632159
  O    0.096430530  -1.548019966  -1.883930753
  C    0.007908870  -2.981280336  -2.047768489
  H   -0.385201522  -3.263031479  -3.043897766
  H    1.091407600  -3.263825445  -2.008465913
  C   -0.795547425  -3.618769154  -0.913180502
  H   -0.898462920  -2.955115657  -0.018390436
  O   -2.164465214  -3.811819111  -1.387784664
  C   -2.526969410  -5.193927614  -1.389978326
  H   -3.570278082  -5.212452183  -0.989277250
  C   -0.269322327  -5.020834868  -0.504781282
  H    0.549223010  -5.391726211  -1.168976075
  C   -1.496646270  -5.947138329  -0.547486669
  H   -1.241850003  -6.953606415  -0.934042176
  H   -1.882545886  -6.123140199   0.481690781
  O    0.164186188  -4.859301078   0.861792825
  O   -2.459868043  -1.167508577  -2.953027072
  O   -1.609572638  -0.131810309  -0.782307491
  N   -2.565073865  -5.652863728  -2.825720824
  C   -1.374629023  -5.885220316  -3.565952486
  N   -1.526823122  -6.475573291  -4.843259472
  C   -2.790359932  -6.729505787  -5.479821055
  C   -3.962304820  -6.303158119  -4.704562891
  C   -3.827618958  -5.812329543  -3.447529862
  O   -0.257617334  -5.594538981  -3.161798373
  H   -0.658433180  -6.831081236  -5.273562730
  O   -2.753929604  -7.239812092  -6.581485076
  C   -5.285763898  -6.428468112  -5.373940217
  H   -5.306848173  -7.272354991  -6.083907136
  H   -6.112152868  -6.591064084  -4.666675519
  H   -5.523351273  -5.519901559  -5.952538345
  H   -4.697805623  -5.507924478  -2.847773645
  P    1.486877593  -5.753743023   1.269175571
  O    2.669753214  -4.730769332   0.807329924
  C    4.019573173  -5.283814533   0.806606264
  H    4.542437817  -4.701812797   1.599727634
  H    4.055297521  -6.366405435   1.047844743
  C    4.630593016  -5.017445602  -0.569765846
  H    5.742219142  -4.928280144  -0.483789240
  O    4.444236926  -6.205009512  -1.396745240
  C    3.798187022  -5.868338039  -2.636329569
  H    4.566428302  -6.009939171  -3.439433745
  C    4.010284584  -3.812884592  -1.331074864
  H    3.371347545  -3.175172456  -0.671875565
  C    3.263332001  -4.439523176  -2.516892535
  H    2.163986681  -4.408564407  -2.361374625
  H    3.403174780  -3.851843711  -3.454728805
  O    5.020306078  -2.906153959  -1.731497703
  O    1.528505550  -7.115104938   0.700658153
  O    1.501819732  -5.592490480   2.884696508
  N    2.723791412  -6.898287213  -2.861587777
  C    2.206374200  -7.013976109  -4.212288413
  N    1.336215498  -8.051507294  -4.508124679
  C    0.922503171  -8.916561851  -3.523199597
  C    1.399437078  -8.779745460  -2.180912572
  C    2.311790036  -7.794293655  -1.882055638
  O    2.556007559  -6.198957637  -5.059964050
  N    0.000159808  -9.858671073  -3.906761863
  H   -0.234715477 -10.631306797  -3.299357096
  H   -0.233505111  -9.977764140  -4.893086833
  H    1.141142120  -2.052962094  -4.414230497
  H    2.749812879  -7.682433888  -0.867182875
  H    1.062460213  -9.452497961  -1.390966725
  H    5.613775400  -3.276501623  -2.421266682
  H   -3.072337850  -2.870571630  -3.477824079
  H   -0.884462322   0.027643798  -0.122710447
  H    1.011255012  -6.261777505   3.440093616
  H    1.367104300  -8.325750841  -6.403215834
  H   -1.178257665   3.459433447  -7.714038266

