%mem=64gb
%nproc=28       
%Chk=snap_100.chk
# opt b3lyp/6-31g(d,p)  scf=(xqc, tight)  pop=min    

tetra snap_100 

2     1 
  O    2.636824717  -4.684288447  -7.739776024
  C    2.244045339  -3.454936778  -8.359623093
  H    2.766298114  -3.512350624  -9.343650708
  H    2.650813353  -2.609780105  -7.770850654
  C    0.737432743  -3.294248294  -8.565003097
  H    0.520418743  -2.286447573  -9.004831654
  O    0.310698742  -4.238665486  -9.606282229
  C   -0.875927604  -4.923840602  -9.220169711
  H   -1.515334118  -5.003937472 -10.130469346
  C   -0.195564976  -3.547442809  -7.351680990
  H    0.263857869  -4.194275118  -6.569343893
  C   -1.437483152  -4.192019720  -7.998223365
  H   -2.176535847  -3.417780487  -8.295565622
  H   -2.002119652  -4.852332238  -7.303096248
  O   -0.449030863  -2.237121820  -6.825255624
  N   -0.454109343  -6.324044882  -8.823232764
  C   -1.314593279  -7.416760728  -8.567730791
  C   -0.565342881  -8.348140520  -7.789983420
  N    0.726415890  -7.825885976  -7.611519330
  C    0.777184852  -6.611905137  -8.207312766
  N   -2.598842839  -7.617418615  -8.998303053
  C   -3.182548208  -8.763612203  -8.526945615
  N   -2.529173713  -9.701209957  -7.686363683
  C   -1.164782873  -9.524406967  -7.219167965
  N   -4.500596325  -8.992025511  -8.862496323
  H   -4.944478815  -8.366182478  -9.532992466
  H   -4.930106560  -9.900060239  -8.754177887
  O   -0.702860243 -10.329977823  -6.441649635
  H    1.678574226  -5.900445978  -8.250042447
  H   -3.043452885 -10.505705514  -7.303515478
  P   -1.146084812  -2.129802067  -5.320025454
  O   -1.897353280  -0.680044242  -5.607934042
  C   -1.249231124   0.482965149  -5.065672041
  H   -1.443596352   1.255683747  -5.838640117
  H   -0.155101190   0.358117011  -4.946257114
  C   -1.932353488   0.834701704  -3.731676784
  H   -1.380737602   0.443222810  -2.839189083
  O   -1.829185618   2.278860326  -3.534804360
  C   -3.101492950   2.913753488  -3.682775555
  H   -3.140716240   3.685918469  -2.871605852
  C   -3.445631671   0.488122349  -3.743206973
  H   -3.752183181  -0.095249378  -4.649825087
  C   -4.179688783   1.838035944  -3.632663064
  H   -4.728083605   1.865683767  -2.654901224
  H   -4.972609319   1.934924428  -4.395023119
  O   -3.858553011  -0.238988106  -2.574736336
  O   -0.142126875  -2.115564096  -4.232357323
  O   -2.263587900  -3.283379557  -5.552068014
  N   -3.015863099   3.633214194  -5.003191878
  C   -1.851366492   4.206170459  -5.507729785
  C   -2.196517363   4.831009989  -6.748854031
  N   -3.561426106   4.636956966  -7.002604961
  C   -4.039355623   3.932884725  -5.974890323
  N   -0.550172735   4.247331873  -5.006955954
  C    0.384481266   4.965338145  -5.774095063
  N    0.112010316   5.559925611  -6.924678312
  C   -1.183525612   5.526007395  -7.486132767
  H    1.422257283   5.029804657  -5.375628168
  N   -1.379946343   6.134534013  -8.665332609
  H   -0.624579153   6.625765608  -9.145468965
  H   -2.301681305   6.147616319  -9.104173598
  H   -5.070983697   3.618684538  -5.840145177
  P   -3.092155843  -1.675767792  -2.262656965
  O   -1.984234573  -1.005809800  -1.265185322
  C   -0.802045495  -1.803782782  -0.991001112
  H   -0.311554190  -2.102663986  -1.948806697
  H   -0.140777066  -1.096918670  -0.443609881
  C   -1.269399768  -2.962910904  -0.122138255
  H   -1.608453667  -2.634222465   0.890462675
  O   -2.481817650  -3.432175908  -0.807454884
  C   -2.463999222  -4.891430861  -0.953994055
  H   -3.461170495  -5.191350906  -0.543818465
  C   -0.328590436  -4.178842202  -0.029217474
  H    0.457661908  -4.163542498  -0.838492172
  C   -1.268877700  -5.393083121  -0.150350985
  H   -0.753075983  -6.271312298  -0.597654278
  H   -1.578987301  -5.744141809   0.859460825
  O    0.244448724  -4.105618316   1.282806408
  O   -2.567001040  -2.313807961  -3.508199012
  O   -4.360275988  -2.414310792  -1.574034691
  N   -2.422098888  -5.216736363  -2.404106180
  C   -1.191481303  -5.452730099  -3.106565528
  N   -1.313147583  -5.947168197  -4.421367294
  C   -2.551838265  -6.169056029  -5.101740259
  C   -3.749993391  -5.729564084  -4.368149104
  C   -3.659613076  -5.287184189  -3.090027296
  O   -0.099334193  -5.280625200  -2.596552933
  H   -0.423732416  -6.170096319  -4.924595545
  O   -2.496490813  -6.666544710  -6.209296850
  C   -5.042541566  -5.780433944  -5.104552165
  H   -4.955023737  -6.352510104  -6.045391622
  H   -5.840942656  -6.258298217  -4.517363956
  H   -5.390742496  -4.773057144  -5.382450325
  H   -4.543967687  -4.951839447  -2.526327873
  P    1.696019378  -4.898123442   1.422814816
  O    2.619782002  -3.985224561   0.417555983
  C    3.366579533  -4.727898450  -0.580993942
  H    4.353602868  -4.981963455  -0.138831984
  H    2.851264545  -5.659061677  -0.895334454
  C    3.527251420  -3.728475142  -1.736333863
  H    4.134198746  -2.840055857  -1.444327239
  O    4.337000354  -4.437549680  -2.734909888
  C    3.629983250  -4.587857512  -3.967827824
  H    4.403727470  -4.447587052  -4.760855301
  C    2.217434226  -3.329095052  -2.449136900
  H    1.330854735  -3.902787322  -2.066396317
  C    2.480449507  -3.589783827  -3.941975523
  H    1.546317530  -3.922023271  -4.445078767
  H    2.760592752  -2.646955479  -4.453862711
  O    1.979131573  -1.941055427  -2.208959498
  O    1.662985232  -6.341024156   1.142133830
  O    2.136769051  -4.364649601   2.889264370
  N    3.159853253  -6.034218147  -4.038713021
  C    2.052494717  -6.433460661  -4.869058958
  N    1.691005546  -7.756988385  -4.943296204
  C    2.335072821  -8.705772977  -4.181507329
  C    3.432799217  -8.324598239  -3.330911109
  C    3.819201658  -7.010710640  -3.287708460
  O    1.445158494  -5.585556281  -5.543406006
  N    1.890631709  -9.983824722  -4.332821843
  H    2.274058959 -10.750807451  -3.799942394
  H    1.087364695 -10.189917661  -4.932463620
  H    2.363942280  -4.725720353  -6.774630670
  H    4.668245347  -6.665387201  -2.669585337
  H    3.953497998  -9.074584449  -2.734258894
  H    1.246411955  -1.639902334  -2.821547695
  H   -2.836046233  -3.517154516  -4.723864693
  H   -4.405981553  -2.425974507  -0.567912866
  H    2.110686513  -5.016554092   3.650573136
  H    1.392107871  -8.200263325  -6.927040166
  H   -0.320423313   3.740791886  -4.137829380

