%mem=64gb
%nproc=28       
%Chk=snap_2.chk
# opt b3lyp/6-31g(d,p)  scf=(xqc, tight)  pop=min    

tetra snap_2 

2     1 
  O    1.773130316  -4.507174566  -7.919003175
  C    2.041719469  -3.155870945  -8.333259372
  H    2.905996590  -3.265107435  -9.024439502
  H    2.348192448  -2.572871303  -7.436276831
  C    0.858492215  -2.487493789  -9.036748515
  H    1.011185977  -1.379583627  -9.096850567
  O    0.854609078  -2.892472432 -10.444358800
  C   -0.382911987  -3.481309609 -10.811495353
  H   -0.614045474  -3.113299321 -11.843212520
  C   -0.547866881  -2.833145813  -8.483011966
  H   -0.544283427  -3.687068495  -7.754034476
  C   -1.400916031  -3.157013355  -9.715070784
  H   -2.021499874  -2.271393438  -9.986344200
  H   -2.132363865  -3.965062119  -9.525490264
  O   -1.113056828  -1.628664402  -7.900554947
  N   -0.135462607  -4.968114744 -10.901322105
  C   -0.520031664  -5.808453298 -11.969701005
  C   -0.006098356  -7.101645712 -11.673955088
  N    0.686893188  -7.019102012 -10.448073980
  C    0.605961475  -5.743784164  -9.997875647
  N   -1.249033974  -5.470069312 -13.074154907
  C   -1.465365792  -6.506861884 -13.955323820
  N   -0.986236071  -7.817622876 -13.743349239
  C   -0.211689183  -8.216715146 -12.567638241
  N   -2.197615144  -6.232242503 -15.080473695
  H   -2.526238126  -5.283084959 -15.245610248
  H   -2.364857709  -6.911576106 -15.808922022
  O    0.140209473  -9.363550069 -12.489391649
  H    1.092197787  -5.292030552  -9.021009219
  H   -1.169195134  -8.564281567 -14.431273318
  P   -0.844012967  -1.565182066  -6.278991527
  O   -1.318573494  -0.008716058  -6.004484188
  C   -0.777775023   0.586499107  -4.796623692
  H   -0.377283392   1.564378950  -5.153337667
  H    0.059238657  -0.004983613  -4.363163431
  C   -1.895670921   0.818676116  -3.774694551
  H   -1.494330419   0.800526710  -2.724506096
  O   -2.326091969   2.212092444  -3.897861815
  C   -3.658724753   2.299517123  -4.377898401
  H   -4.130050001   3.128334087  -3.799094830
  C   -3.166784172  -0.057807769  -3.935773644
  H   -3.095971441  -0.833776686  -4.737943424
  C   -4.316553446   0.931550676  -4.201703004
  H   -5.003004711   0.926452642  -3.316496701
  H   -4.957692295   0.616807598  -5.045000766
  O   -3.519364630  -0.691100558  -2.695969673
  O    0.518705703  -1.947748905  -5.844892677
  O   -2.101855294  -2.406423792  -5.715408169
  N   -3.569732271   2.714257314  -5.822333103
  C   -3.612585408   4.014646362  -6.321538594
  C   -3.366737039   3.927217710  -7.731379069
  N   -3.127478999   2.589339343  -8.083611896
  C   -3.227671136   1.885257196  -6.957023684
  N   -3.859019560   5.247407808  -5.714684008
  C   -3.857481798   6.373693781  -6.563477788
  N   -3.649272252   6.331718002  -7.867744676
  C   -3.390846035   5.112535290  -8.531150784
  H   -4.054540145   7.362167324  -6.088286796
  N   -3.186555805   5.143221899  -9.858501767
  H   -3.219487933   6.017473743 -10.383432374
  H   -2.993494993   4.287941294 -10.379083885
  H   -3.057258310   0.811276734  -6.844210115
  P   -2.522835060  -1.895814833  -2.142209994
  O   -1.651005925  -0.910450282  -1.161131957
  C   -0.393844382  -1.419592727  -0.658421382
  H    0.302572994  -1.621555853  -1.506606178
  H   -0.010062123  -0.572244394  -0.052344366
  C   -0.694109304  -2.654369160   0.187890849
  H   -1.260699550  -2.419179468   1.123853223
  O   -1.632830497  -3.436537824  -0.625607267
  C   -1.113924834  -4.789180793  -0.883242292
  H   -1.985134066  -5.442347807  -0.616548193
  C    0.518202469  -3.562226200   0.487063356
  H    1.471841401  -3.207267954   0.024626905
  C    0.107349165  -4.960059234   0.012682785
  H    0.946762928  -5.486719098  -0.510952798
  H   -0.126281480  -5.624096580   0.880508379
  O    0.600723538  -3.488446361   1.930299695
  O   -1.734397874  -2.539005191  -3.235504192
  O   -3.702494339  -2.709218010  -1.394287837
  N   -0.827569196  -4.911728056  -2.334855544
  C    0.203157071  -4.136008569  -2.958274157
  N    0.329040851  -4.288788840  -4.363630310
  C   -0.458153750  -5.170400921  -5.150034198
  C   -1.404411919  -6.003303952  -4.421906935
  C   -1.559796212  -5.862843113  -3.076666785
  O    0.952436268  -3.403129440  -2.338586128
  H    0.966893080  -3.605813899  -4.837806164
  O   -0.285435802  -5.137557958  -6.372956685
  C   -2.154837745  -7.031275298  -5.197050657
  H   -2.118098142  -6.830036185  -6.278850231
  H   -1.722001859  -8.033524403  -5.039487882
  H   -3.214962122  -7.078168999  -4.912663400
  H   -2.247867054  -6.505610415  -2.500519922
  P    1.907673783  -4.154857324   2.661067020
  O    1.712977016  -5.708951535   2.151916698
  C    2.508803834  -6.718472862   2.822527167
  H    3.046061633  -6.320566285   3.706971775
  H    1.750016082  -7.453197146   3.174468311
  C    3.466478063  -7.381060097   1.823716606
  H    4.400680285  -7.715844241   2.336823673
  O    2.881657352  -8.641940967   1.383766364
  C    2.321905729  -8.525097733   0.064499958
  H    2.633971839  -9.460942343  -0.459372879
  C    3.767522514  -6.588711754   0.525309987
  H    3.635764561  -5.483366438   0.619093672
  C    2.858004971  -7.224759777  -0.540899582
  H    2.048004052  -6.514429135  -0.836883343
  H    3.403483479  -7.406452959  -1.487953310
  O    5.142732400  -6.683050750   0.196473061
  O    2.096222235  -3.872547053   4.077274377
  O    3.121985125  -3.689093076   1.641007510
  N    0.821501734  -8.570053005   0.242898448
  C   -0.091700205  -8.008493811  -0.759985410
  N   -1.448292674  -7.984337372  -0.470225053
  C   -1.921521211  -8.595827033   0.656267110
  C   -1.043756700  -9.232697925   1.599750790
  C    0.307835095  -9.193764337   1.372166253
  O    0.390961369  -7.551347988  -1.781625861
  N   -3.278133846  -8.529967323   0.875689837
  H   -3.709933896  -9.062099405   1.615793732
  H   -3.893023281  -8.178685116   0.155218231
  H    1.143302926  -4.508147597  -7.113568076
  H    1.030843999  -9.653526598   2.069710026
  H   -1.442707417  -9.737134370   2.476876049
  H    5.426344765  -7.606359849   0.016527884
  H   -1.963963725  -2.884750150  -4.776372874
  H   -3.515722581  -3.080713124  -0.470168812
  H    3.885308952  -3.175448323   2.014248503
  H    1.157247698  -7.806624958 -10.011976523
  H   -3.979331121   5.332357320  -4.701649805

