%mem=64gb
%nproc=28       
%Chk=snap_52.chk
# opt b3lyp/6-31g(d,p)  scf=(xqc, tight)  pop=min    

tetra snap_52 

2     1 
  O    1.173794806  -4.321749891  -6.257047070
  C    1.567322907  -3.612731468  -7.432785935
  H    2.110062444  -4.376806530  -8.030817673
  H    2.266416303  -2.800563018  -7.159626978
  C    0.361314613  -3.077233660  -8.221884598
  H    0.477253394  -2.004899293  -8.499229096
  O    0.356923927  -3.763994601  -9.516737582
  C   -0.809582074  -4.557795563  -9.669399773
  H   -1.036570568  -4.559633634 -10.765025252
  C   -1.026201223  -3.358298516  -7.588793971
  H   -0.944051097  -4.056991189  -6.727242611
  C   -1.860015902  -3.992063815  -8.718526323
  H   -2.467920424  -3.201418616  -9.218862230
  H   -2.614262002  -4.711165165  -8.346823241
  O   -1.614403396  -2.106164198  -7.223679810
  N   -0.400909018  -5.975585070  -9.304171196
  C    0.542158824  -6.733423461 -10.042621104
  C    0.880431915  -7.863909056  -9.242512715
  N    0.143436318  -7.780625586  -8.048281635
  C   -0.611456453  -6.653822169  -8.092741499
  N    1.014270075  -6.483905953 -11.296483538
  C    1.904020634  -7.419738873 -11.776793455
  N    2.326144205  -8.543294662 -11.030895017
  C    1.838765521  -8.847749327  -9.688103402
  N    2.391829911  -7.227921290 -13.041154395
  H    2.085610269  -6.419054897 -13.580324590
  H    3.044616984  -7.857688727 -13.484279586
  O    2.269780333  -9.826795170  -9.137460423
  H   -1.352119037  -6.336319592  -7.290670393
  H    3.009705028  -9.209560830 -11.420521668
  P   -1.689217623  -1.864064670  -5.570643821
  O   -2.307878451  -0.333959788  -5.647043160
  C   -1.349611639   0.730264670  -5.472559165
  H   -1.597241338   1.445017176  -6.287504494
  H   -0.297601927   0.400211347  -5.600836357
  C   -1.576616452   1.367887473  -4.092390753
  H   -0.697583499   1.245052015  -3.410675409
  O   -1.624284487   2.817040721  -4.295054486
  C   -2.901435632   3.342510457  -3.961395514
  H   -2.701228525   4.303517090  -3.432218501
  C   -2.914847323   0.965940823  -3.411593904
  H   -3.524182562   0.250359761  -4.018828710
  C   -3.649503833   2.291944305  -3.145551400
  H   -3.586486549   2.516461692  -2.049563902
  H   -4.734562788   2.233491451  -3.344358942
  O   -2.674758724   0.419105497  -2.109136978
  O   -0.347429052  -2.058225571  -4.968654676
  O   -2.964089577  -2.837568049  -5.314875050
  N   -3.592329607   3.646093528  -5.263888155
  C   -3.563328558   4.850386609  -5.963688958
  C   -4.263305570   4.632601912  -7.195543744
  N   -4.680061083   3.295279875  -7.267362495
  C   -4.269954633   2.715886199  -6.139843055
  N   -3.028405636   6.102541767  -5.657723371
  C   -3.221622397   7.116418693  -6.619900979
  N   -3.872074117   6.958493523  -7.758451785
  C   -4.433696394   5.713459315  -8.118268269
  H   -2.793712354   8.118180721  -6.385955355
  N   -5.084565824   5.623186787  -9.288144413
  H   -5.182318302   6.427948049  -9.908704515
  H   -5.509388817   4.743981431  -9.586217005
  H   -4.401252674   1.667803435  -5.872173620
  P   -2.057265641  -1.123896362  -2.058962708
  O   -0.540949660  -0.618112950  -1.726966927
  C    0.527956274  -1.598857682  -1.815397866
  H    0.521551814  -2.101667032  -2.816921668
  H    1.439910790  -0.976849362  -1.715602855
  C    0.296582138  -2.538711584  -0.634265097
  H    0.339724058  -2.019730583   0.354506882
  O   -1.121543022  -2.899320157  -0.807240468
  C   -1.284959738  -4.339004892  -0.970706720
  H   -2.153806582  -4.574903487  -0.306575305
  C    1.101503641  -3.852033774  -0.605829648
  H    1.803934655  -3.944957615  -1.472972029
  C    0.041385918  -4.964274864  -0.553379060
  H    0.349131960  -5.805416759  -1.213103551
  H   -0.053947863  -5.425142499   0.463617811
  O    1.892850659  -3.768700026   0.598171326
  O   -2.277796719  -1.842698945  -3.352734759
  O   -2.980443452  -1.606961973  -0.817427555
  N   -1.648513339  -4.629192773  -2.385614423
  C   -0.633311573  -4.692197211  -3.387992881
  N   -1.015791518  -5.229248539  -4.636928923
  C   -2.318405422  -5.721115665  -4.952162933
  C   -3.308785774  -5.593687976  -3.879750878
  C   -2.957039875  -5.099175058  -2.664874383
  O    0.513577292  -4.317435126  -3.201263467
  H   -0.251059758  -5.315518107  -5.341973594
  O   -2.477947247  -6.155480988  -6.087910458
  C   -4.684113359  -6.079451717  -4.174817109
  H   -4.875060914  -7.045898382  -3.676125760
  H   -5.462437059  -5.373705473  -3.854808845
  H   -4.834582941  -6.252821038  -5.255050139
  H   -3.673844342  -5.035953890  -1.834665389
  P    2.638288944  -5.159285522   1.079702619
  O    3.592519201  -5.474871527  -0.207442220
  C    4.322725316  -6.735787219  -0.144040440
  H    5.389003082  -6.411788355  -0.168880529
  H    4.127973932  -7.314337001   0.782068176
  C    3.976793065  -7.569066717  -1.379602724
  H    4.829769205  -8.253752476  -1.617702921
  O    2.894394870  -8.486780531  -1.051265906
  C    1.789546591  -8.345089882  -1.965151078
  H    1.726196158  -9.315669139  -2.515237039
  C    3.536540911  -6.745474597  -2.618087529
  H    3.707251084  -5.648645987  -2.495245531
  C    2.065594814  -7.116934187  -2.840784057
  H    1.406109934  -6.259895789  -2.578568709
  H    1.837242151  -7.305508137  -3.907168555
  O    4.352648718  -7.049815917  -3.737094474
  O    1.746126557  -6.246459765   1.523045460
  O    3.682313540  -4.564555305   2.174982172
  N    0.539582487  -8.195097889  -1.146229323
  C   -0.733002593  -7.962879581  -1.867911762
  N   -1.878743548  -7.815957192  -1.114015200
  C   -1.832763094  -7.946477845   0.245567715
  C   -0.607054425  -8.168840846   0.949444729
  C    0.563868126  -8.288941062   0.238822898
  O   -0.660351552  -7.855635826  -3.080349866
  N   -3.025866914  -7.744684737   0.920685263
  H   -3.105756306  -8.054349062   1.880198351
  H   -3.891387838  -7.762603075   0.392023718
  H    1.014940188  -3.690431258  -5.489178409
  H    1.542990899  -8.443483633   0.729279195
  H   -0.579771918  -8.210423721   2.037476466
  H    4.280495062  -7.988679623  -4.011956269
  H   -3.187577352  -3.025483992  -4.329053431
  H   -2.538341901  -1.781080152   0.071211890
  H    3.407376733  -4.554550169   3.135118086
  H    0.170252703  -8.481456027  -7.311965798
  H   -2.485541503   6.260280810  -4.804642889

