%mem=64gb
%nproc=28       
%Chk=snap_15.chk
# opt b3lyp/6-31g(d,p)  scf=(xqc, tight)  pop=min    

tetra snap_15 

2     1 
  O    2.503781414  -3.701292380  -7.911924901
  C    2.355437048  -2.398000149  -8.477279339
  H    3.243548685  -2.306681981  -9.138670969
  H    2.415668038  -1.641855411  -7.663266656
  C    1.053610655  -2.237392956  -9.269434045
  H    0.954831770  -1.203129241  -9.676878720
  O    1.122870701  -3.089740142 -10.471710604
  C   -0.025826558  -3.915257870 -10.571872667
  H   -0.269230311  -4.007278792 -11.656751069
  C   -0.236012979  -2.690691795  -8.538432698
  H   -0.004089760  -3.455376227  -7.745333489
  C   -1.090741495  -3.333419874  -9.639416962
  H   -1.715271089  -2.571661560 -10.154979012
  H   -1.814345143  -4.075411278  -9.249885421
  O   -0.921471641  -1.525950989  -8.022758004
  N    0.405583708  -5.292498611 -10.084240824
  C   -0.400054872  -6.445614634  -9.988468082
  C    0.401840195  -7.458127967  -9.389521936
  N    1.662764524  -6.900775491  -9.111357937
  C    1.653639607  -5.605426846  -9.523449641
  N   -1.695937863  -6.600904619 -10.402989415
  C   -2.210520881  -7.860183581 -10.211599345
  N   -1.483617189  -8.919285317  -9.625165062
  C   -0.104646390  -8.790846815  -9.157046724
  N   -3.521267891  -8.070670311 -10.568386472
  H   -4.025118288  -7.332585295 -11.056708347
  H   -3.927715883  -8.995063765 -10.608840945
  O    0.415294997  -9.757123016  -8.666644132
  H    2.477347264  -4.862225277  -9.412378517
  H   -1.913500089  -9.848137553  -9.499092502
  P   -0.787963620  -1.466533044  -6.377243809
  O   -1.376622703   0.047229757  -6.059178070
  C   -0.714299524   0.717401054  -4.954499359
  H   -0.374019065   1.685634836  -5.387683133
  H    0.179350973   0.159676533  -4.586293616
  C   -1.724685919   0.961552756  -3.826152175
  H   -1.254132620   0.812759503  -2.820743344
  O   -2.008669377   2.398103860  -3.803605025
  C   -3.358991268   2.668150324  -4.142587454
  H   -3.689216517   3.464463528  -3.436064644
  C   -3.092168823   0.239016836  -3.965222336
  H   -3.144215312  -0.467732624  -4.825990303
  C   -4.143963346   1.359788658  -4.066525556
  H   -4.784119983   1.324267236  -3.147847309
  H   -4.851907671   1.201693850  -4.900291045
  O   -3.456361991  -0.447604053  -2.758505815
  O    0.576897772  -1.737486463  -5.872756200
  O   -1.994767159  -2.445404029  -5.946999536
  N   -3.350690734   3.232801291  -5.537239051
  C   -3.517637006   4.562806344  -5.914688837
  C   -3.352822959   4.611740832  -7.338215502
  N   -3.053956004   3.328347720  -7.821065596
  C   -3.040096471   2.524561599  -6.758777153
  N   -3.811159844   5.719466126  -5.189640255
  C   -3.923196829   6.912903925  -5.933898406
  N   -3.786221234   6.996227677  -7.244988567
  C   -3.497456471   5.856769004  -8.027878133
  H   -4.148288849   7.842715811  -5.362224643
  N   -3.381545703   6.012422542  -9.356245561
  H   -3.493538555   6.925671323  -9.797745256
  H   -3.175443354   5.218077516  -9.962559232
  H   -2.811649948   1.452763987  -6.755321353
  P   -2.572110409  -1.780729567  -2.324045160
  O   -1.836564179  -1.044697591  -1.064189383
  C   -0.643844318  -1.675381884  -0.537995976
  H    0.133409971  -1.757185641  -1.334261794
  H   -0.313122251  -0.955506303   0.240547696
  C   -1.061928750  -3.025571410   0.040213330
  H   -1.721037986  -2.941209595   0.938682352
  O   -1.927870764  -3.598179267  -1.000104897
  C   -1.423523911  -4.899404438  -1.455478765
  H   -2.329676683  -5.553868117  -1.388005361
  C    0.090109821  -4.022812094   0.279055346
  H    1.088424566  -3.611413226  -0.007422217
  C   -0.288961420  -5.285046976  -0.509951664
  H    0.602513826  -5.697826874  -1.043974530
  H   -0.612251966  -6.093353252   0.181576263
  O    0.009280376  -4.322666007   1.689777996
  O   -1.697850938  -2.227389736  -3.450313007
  O   -3.849003790  -2.689963849  -1.914988155
  N   -1.003261970  -4.775510619  -2.872399338
  C    0.193927318  -4.066619108  -3.225446512
  N    0.589242028  -4.157739519  -4.580835264
  C   -0.084228681  -4.932908601  -5.562496161
  C   -1.329821109  -5.566834162  -5.141052359
  C   -1.731046250  -5.500450565  -3.844625582
  O    0.859160909  -3.453044664  -2.410332017
  H    1.365050239  -3.528687801  -4.877566396
  O    0.418786016  -4.974469514  -6.686154377
  C   -2.109773127  -6.277192660  -6.193684692
  H   -1.439515700  -6.791069869  -6.900803195
  H   -2.780563663  -7.040593007  -5.775442849
  H   -2.720823676  -5.567162086  -6.772938335
  H   -2.631306551  -6.018910754  -3.484432027
  P    1.417423045  -4.719370173   2.441755624
  O    2.190624316  -5.538981398   1.232701835
  C    2.505077418  -6.933488824   1.474542085
  H    2.919349624  -7.073784529   2.494067954
  H    1.570127304  -7.519155994   1.369944015
  C    3.525834518  -7.318702907   0.390532690
  H    4.500982258  -7.628811851   0.831052480
  O    3.059003021  -8.535051165  -0.263673276
  C    2.436209865  -8.240612243  -1.526973694
  H    2.855744292  -8.990635702  -2.238608519
  C    3.687067973  -6.273276143  -0.745276118
  H    3.482298684  -5.222884633  -0.420685637
  C    2.741674624  -6.774557644  -1.853563592
  H    1.825563283  -6.139401004  -1.891616826
  H    3.188487627  -6.657466753  -2.860013509
  O    5.032454600  -6.193473754  -1.176514536
  O    1.303216411  -5.365429992   3.743005838
  O    2.189344652  -3.281650593   2.292717370
  N    0.964021457  -8.524525754  -1.345470419
  C   -0.025119011  -7.968196135  -2.284987467
  N   -1.366703356  -8.106822149  -1.964539204
  C   -1.743096952  -8.871794824  -0.897817524
  C   -0.783379054  -9.545875790  -0.065690959
  C    0.551781505  -9.354101329  -0.312222402
  O    0.402230373  -7.370586603  -3.254778339
  N   -3.089903272  -8.912589131  -0.612843194
  H   -3.452177456  -9.562547120   0.068868941
  H   -3.757040979  -8.547431594  -1.278859610
  H    1.812996559  -3.853954569  -7.199636387
  H    1.337061615  -9.837240633   0.297155333
  H   -1.108289720 -10.203931387   0.737831356
  H    5.379917555  -7.056185236  -1.493472962
  H   -2.044367062  -2.715921127  -4.920619210
  H   -3.849496337  -3.125566609  -1.003379212
  H    2.880858047  -3.042208120   2.966772319
  H    2.415041881  -7.398763504  -8.643502535
  H   -3.901092454   5.706714202  -4.170564963

