%mem=64gb
%nproc=28       
%Chk=snap_137.chk
# opt b3lyp/6-31g(d,p)  scf=(xqc, tight)  pop=min    

tetra snap_137 

2     1 
  O    1.879960161  -2.554794503  -6.028059269
  C    1.886994420  -3.471958841  -7.113912574
  H    1.966464481  -4.515473610  -6.732482659
  H    2.822463147  -3.222234456  -7.657495167
  C    0.659433689  -3.281066755  -8.017266210
  H    0.652667719  -2.282371912  -8.509419982
  O    0.787080185  -4.255319017  -9.113770952
  C   -0.415604232  -4.999229295  -9.283234712
  H   -0.578792897  -5.111320161 -10.381498060
  C   -0.708872842  -3.587053764  -7.358304116
  H   -0.589627146  -4.221350618  -6.450838428
  C   -1.503351589  -4.316643780  -8.455356617
  H   -2.087092980  -3.585681784  -9.056935062
  H   -2.265389807  -5.013926646  -8.041536300
  O   -1.344259346  -2.333322768  -7.082142978
  N   -0.134618767  -6.380280179  -8.717261825
  C   -0.991489805  -7.499935606  -8.771667313
  C   -0.473330738  -8.454671563  -7.845654071
  N    0.662515193  -7.903500808  -7.242824100
  C    0.844103879  -6.658821796  -7.744118123
  N   -2.098401927  -7.693433563  -9.552965881
  C   -2.745675521  -8.884716425  -9.340495971
  N   -2.320938843  -9.862314099  -8.403280472
  C   -1.152778036  -9.691488202  -7.556586907
  N   -3.889572626  -9.119365380 -10.062249735
  H   -4.176673733  -8.450120451 -10.773843260
  H   -4.379090129 -10.001132566 -10.043080090
  O   -0.887386718 -10.546768007  -6.743946242
  H    1.636843467  -5.945683658  -7.448151675
  H   -2.864456356 -10.724996886  -8.259727731
  P   -1.813347549  -2.165909765  -5.491314287
  O   -2.351141657  -0.611615519  -5.601775941
  C   -1.393396180   0.436413886  -5.385511944
  H   -1.665933388   1.180689142  -6.163859468
  H   -0.343699397   0.113928812  -5.537630093
  C   -1.626628168   0.999131547  -3.972505056
  H   -0.880638440   0.624320679  -3.225273855
  O   -1.338420709   2.435174806  -4.035957107
  C   -2.451455955   3.216389746  -3.587727899
  H   -2.035623440   3.901496407  -2.803218119
  C   -3.092183726   0.850614811  -3.485660466
  H   -3.748167324   0.341102445  -4.236106102
  C   -3.562568531   2.274418832  -3.138325480
  H   -3.726825029   2.332334761  -2.030890926
  H   -4.555689758   2.481144365  -3.577861084
  O   -3.179523197   0.165454768  -2.230870774
  O   -0.648429728  -2.500056850  -4.630108575
  O   -3.170957936  -3.045101923  -5.596927048
  N   -2.870293084   4.059692626  -4.761175383
  C   -2.119420106   4.356485997  -5.890191517
  C   -2.915390273   5.230821819  -6.701306088
  N   -4.139852466   5.473111512  -6.064484118
  C   -4.109782201   4.787274564  -4.922093025
  N   -0.837633205   3.968682566  -6.279517119
  C   -0.379524596   4.492677220  -7.501622780
  N   -1.082837580   5.292226660  -8.287649414
  C   -2.384869262   5.714270223  -7.939302263
  H    0.645543959   4.204707566  -7.825479160
  N   -3.038498435   6.532472934  -8.778423454
  H   -2.614182150   6.858400361  -9.647051921
  H   -3.979773217   6.864517090  -8.561612818
  H   -4.890523355   4.763944181  -4.165299106
  P   -2.737478238  -1.430163693  -2.156440184
  O   -1.246864117  -1.068038215  -1.597757368
  C   -0.274695042  -2.138520276  -1.466122506
  H   -0.124812349  -2.640391339  -2.453250739
  H    0.659753856  -1.601607851  -1.187514119
  C   -0.829628713  -3.031313559  -0.360159687
  H   -0.996815203  -2.482384503   0.599933115
  O   -2.178404265  -3.336290147  -0.870048208
  C   -2.347754333  -4.769559745  -1.073059504
  H   -3.395725381  -4.943510817  -0.720336017
  C   -0.145477240  -4.384836967  -0.098666195
  H    0.706639557  -4.560646632  -0.816101584
  C   -1.263426491  -5.436357331  -0.232094045
  H   -0.885238242  -6.393220913  -0.649824568
  H   -1.656828157  -5.711028245   0.773083376
  O    0.323488602  -4.320353389   1.259311321
  O   -2.851463469  -2.118956672  -3.481745728
  O   -3.873844749  -1.846419105  -1.080264965
  N   -2.262602743  -5.087921952  -2.525251581
  C   -1.014505837  -5.289884983  -3.200097321
  N   -1.089999475  -5.813100640  -4.510017588
  C   -2.304878412  -6.041585450  -5.233503738
  C   -3.531851052  -5.660298479  -4.516307510
  C   -3.481803335  -5.208681801  -3.239295864
  O    0.068346094  -5.088683898  -2.676863590
  H   -0.184756675  -6.083044557  -4.951511698
  O   -2.200885869  -6.506005576  -6.353113316
  C   -4.800078847  -5.768787923  -5.287770719
  H   -4.868122626  -6.733651492  -5.817818444
  H   -5.699979641  -5.681080083  -4.665027345
  H   -4.854518260  -4.984825890  -6.065630726
  H   -4.389342883  -4.915514691  -2.691787799
  P    1.547743521  -5.391559654   1.585404808
  O    2.807462363  -4.661180103   0.824906612
  C    3.528381620  -5.492531236  -0.121170231
  H    4.399393521  -5.920306399   0.420129938
  H    2.908307005  -6.316387298  -0.530291679
  C    3.988470504  -4.508161558  -1.208974119
  H    4.770967959  -3.816744098  -0.822775665
  O    4.672395756  -5.310186981  -2.219682557
  C    3.949534444  -5.317849001  -3.454305090
  H    4.733293904  -5.263462710  -4.246959035
  C    2.840220504  -3.762711501  -1.935862985
  H    1.835499337  -4.020570053  -1.507611338
  C    2.947050626  -4.171270972  -3.410584819
  H    1.938845841  -4.438088071  -3.812876786
  H    3.251432181  -3.328524314  -4.067724344
  O    2.884859868  -2.361802919  -1.744784203
  O    1.289739643  -6.785621964   1.185277339
  O    1.806519295  -5.021641860   3.141244128
  N    3.281183297  -6.680520028  -3.563231809
  C    2.255306758  -6.905100184  -4.551860365
  N    1.695384160  -8.164102312  -4.670494512
  C    2.085402892  -9.192489402  -3.846341741
  C    3.111900344  -8.978560158  -2.859820887
  C    3.691956612  -7.741094762  -2.756905324
  O    1.896334162  -5.993026750  -5.299535972
  N    1.468180301 -10.391607893  -4.048108357
  H    1.685891256 -11.204451848  -3.489502076
  H    0.738395899 -10.494875562  -4.751398793
  H    1.068870557  -2.681105801  -5.448255223
  H    4.509441054  -7.531848966  -2.042647877
  H    3.432661594  -9.793667373  -2.210293871
  H    3.711124309  -1.959072404  -2.092647327
  H   -3.734541804  -3.095172652  -4.740731925
  H   -3.587802653  -2.135474192  -0.158629931
  H    1.572180385  -5.710866522   3.830990944
  H    1.165213712  -8.333269749  -6.429645049
  H   -0.283056416   3.363136900  -5.654021154

