%mem=64gb
%nproc=28       
%Chk=snap_92.chk
# opt b3lyp/6-31g(d,p)  scf=(xqc, tight)  pop=min    

tetra snap_92 

2     1 
  O    2.749789786  -4.790049134  -7.575445895
  C    2.397371247  -3.559309673  -8.215392160
  H    2.937664494  -3.638190704  -9.188450704
  H    2.809426370  -2.717121820  -7.626272695
  C    0.899736521  -3.369115715  -8.455322791
  H    0.709518193  -2.356305350  -8.896960799
  O    0.481407169  -4.305338811  -9.506082878
  C   -0.717678676  -4.980592718  -9.143136041
  H   -1.344905307  -5.045598979 -10.063627854
  C   -0.062386741  -3.604798474  -7.261915469
  H    0.375027129  -4.241954162  -6.459980940
  C   -1.293744540  -4.249375969  -7.927036647
  H   -2.028582489  -3.474245241  -8.233201114
  H   -1.867345927  -4.909228315  -7.239684316
  O   -0.322729725  -2.286194621  -6.759303638
  N   -0.325115948  -6.389805984  -8.752502160
  C   -1.207216520  -7.482242867  -8.584971080
  C   -0.516782605  -8.442085979  -7.788287699
  N    0.762296254  -7.934137134  -7.506844229
  C    0.862629275  -6.706883343  -8.068884996
  N   -2.459994220  -7.657160911  -9.107909103
  C   -3.077424885  -8.819850777  -8.725422648
  N   -2.487800891  -9.789029730  -7.875925078
  C   -1.156701419  -9.638457801  -7.308335523
  N   -4.362941078  -9.032274645  -9.173881999
  H   -4.755261548  -8.380786520  -9.851687812
  H   -4.811943342  -9.934643021  -9.110487027
  O   -0.752855994 -10.480704843  -6.540176930
  H    1.771650691  -6.005453499  -8.049453146
  H   -3.024591133 -10.610890305  -7.567245067
  P   -1.059661506  -2.150674066  -5.275356720
  O   -1.898982584  -0.768956075  -5.642290624
  C   -1.311455434   0.467077132  -5.204991227
  H   -1.627808569   1.179863351  -5.995983215
  H   -0.205651784   0.434744985  -5.168744543
  C   -1.920889755   0.831356399  -3.839066434
  H   -1.306168442   0.472835676  -2.975233918
  O   -1.845242247   2.282226639  -3.681518800
  C   -3.146413061   2.879308547  -3.667455360
  H   -3.149442039   3.560231938  -2.775530335
  C   -3.419232660   0.441272163  -3.751527899
  H   -3.752426243  -0.195546021  -4.611648699
  C   -4.192571683   1.769227888  -3.659594164
  H   -4.782412014   1.774375879  -2.706670317
  H   -4.949344747   1.843535700  -4.462487680
  O   -3.740962319  -0.231813524  -2.523997349
  O   -0.068558687  -2.030533583  -4.181869760
  O   -2.100386875  -3.380433745  -5.468442485
  N   -3.197133747   3.738362918  -4.902564935
  C   -2.094898331   4.289430014  -5.547609785
  C   -2.598989981   5.139779972  -6.584408686
  N   -4.000180733   5.110109937  -6.569765222
  C   -4.349412761   4.290988367  -5.577072775
  N   -0.725402450   4.136516675  -5.332215879
  C    0.119023289   4.886175842  -6.170304675
  N   -0.300452530   5.684042898  -7.139035548
  C   -1.675897620   5.867278538  -7.402914322
  H    1.214730789   4.791304231  -6.000174808
  N   -2.027285874   6.706651510  -8.388631309
  H   -1.327976651   7.209147619  -8.937171242
  H   -3.009851282   6.878904732  -8.606641700
  H   -5.365286099   4.051843930  -5.271361182
  P   -2.995959162  -1.682270064  -2.229676104
  O   -1.852712696  -1.044157632  -1.252163553
  C   -0.683392324  -1.873731769  -1.018944901
  H   -0.232458035  -2.186757124  -1.992059116
  H    0.015206703  -1.185051016  -0.497700396
  C   -1.154429556  -3.023161951  -0.137611661
  H   -1.473157139  -2.690762534   0.879161466
  O   -2.384476107  -3.471487596  -0.809772058
  C   -2.398389774  -4.931517254  -0.953870996
  H   -3.401505968  -5.208642737  -0.542139844
  C   -0.239650070  -4.259429034  -0.060856694
  H    0.516258631  -4.271181183  -0.900422066
  C   -1.214346898  -5.449623054  -0.144814377
  H   -0.727730715  -6.354608806  -0.574167054
  H   -1.529582728  -5.768564228   0.874386636
  O    0.410000434  -4.190046814   1.212186393
  O   -2.515091244  -2.326295614  -3.491417173
  O   -4.258212303  -2.383727503  -1.493287522
  N   -2.362511724  -5.265773113  -2.403084669
  C   -1.136901318  -5.533747652  -3.102569835
  N   -1.260960877  -6.069656095  -4.400229098
  C   -2.500234581  -6.287783999  -5.082553829
  C   -3.697675529  -5.850146065  -4.344441305
  C   -3.604410048  -5.376621184  -3.078057593
  O   -0.041506536  -5.334818101  -2.607274657
  H   -0.370424666  -6.310008836  -4.895924477
  O   -2.445518778  -6.775720610  -6.193570320
  C   -4.997081748  -5.954056064  -5.062724591
  H   -4.854957574  -6.179344288  -6.134637676
  H   -5.623569670  -6.762640315  -4.653346842
  H   -5.580199194  -5.023424598  -5.009167069
  H   -4.490605522  -5.047218873  -2.514283665
  P    1.758907499  -5.162010496   1.335199493
  O    2.835988544  -4.234791834   0.494871237
  C    3.514760839  -4.905325940  -0.593255377
  H    4.520159430  -5.185301861  -0.209773169
  H    2.983753068  -5.821429700  -0.928504188
  C    3.641690349  -3.859922472  -1.711335355
  H    4.244988652  -2.975335821  -1.400096307
  O    4.442083566  -4.529845772  -2.743961921
  C    3.693891479  -4.712719066  -3.945505617
  H    4.434243092  -4.558065540  -4.767241973
  C    2.322593574  -3.441202122  -2.393987349
  H    1.432617778  -3.980956728  -1.971057453
  C    2.516515588  -3.746021832  -3.888544545
  H    1.567653724  -4.132291597  -4.321159395
  H    2.735042402  -2.817952705  -4.454368228
  O    2.130903778  -2.044897032  -2.166040018
  O    1.613621706  -6.542674953   0.870264286
  O    2.141164287  -4.869102638   2.877675421
  N    3.257613433  -6.170704429  -3.987393287
  C    2.138467578  -6.601442972  -4.786214217
  N    1.792315825  -7.929956647  -4.827464394
  C    2.466489578  -8.853486941  -4.060042227
  C    3.582632048  -8.443053570  -3.247439956
  C    3.954494616  -7.124800882  -3.240609700
  O    1.509091407  -5.771500736  -5.465293083
  N    2.033892350 -10.140465217  -4.165763507
  H    2.444037386 -10.890275193  -3.627265500
  H    1.220822449 -10.370885465  -4.736321848
  H    2.444416200  -4.826652499  -6.621042347
  H    4.818920826  -6.757809941  -2.657194075
  H    4.127462748  -9.174571812  -2.648776886
  H    1.451013793  -1.701328714  -2.814704126
  H   -2.686056785  -3.601946564  -4.646081960
  H   -4.215144885  -2.488004350  -0.489908273
  H    2.254261500  -3.914104256   3.163132917
  H    1.390137992  -8.340008330  -6.803186969
  H   -0.399276212   3.520033917  -4.570401420

