%mem=64gb
%nproc=28       
%Chk=snap_146.chk
# opt b3lyp/6-31g(d,p)  scf=(xqc, tight)  pop=min    

tetra snap_146 

2     1 
  O    0.960009721  -3.444194472  -4.874169940
  C    1.706433337  -3.537446494  -6.080458358
  H    2.030074972  -4.608272812  -6.098698858
  H    2.609814786  -2.902850588  -6.021329855
  C    0.839156021  -3.172118420  -7.297832778
  H    1.061625867  -2.151186610  -7.683636796
  O    1.225204779  -4.058463696  -8.401360366
  C    0.098803461  -4.752914469  -8.926534593
  H    0.225336787  -4.779514670 -10.035582241
  C   -0.682370843  -3.382858597  -7.095938105
  H   -0.906532521  -3.977613698  -6.178302068
  C   -1.162347615  -4.092627579  -8.368578954
  H   -1.595454592  -3.358408765  -9.083220701
  H   -1.994520817  -4.806248162  -8.165566114
  O   -1.306033196  -2.078312062  -7.069732033
  N    0.215857489  -6.174811311  -8.415561540
  C   -0.696858909  -7.223493934  -8.651930144
  C   -0.357127532  -8.267539582  -7.739771631
  N    0.759351603  -7.857073365  -7.003011144
  C    1.080219276  -6.599934001  -7.386796641
  N   -1.703833542  -7.287890033  -9.575967750
  C   -2.455039753  -8.435056699  -9.519680470
  N   -2.233737745  -9.481464049  -8.587691996
  C   -1.174065612  -9.444650911  -7.597128611
  N   -3.499209650  -8.553738940 -10.402826188
  H   -3.634309946  -7.834459576 -11.110046752
  H   -4.022951945  -9.408842870 -10.516834883
  O   -1.103251455 -10.340945083  -6.787489185
  H    1.901248069  -5.980999798  -6.965000840
  H   -2.870664885 -10.289083690  -8.541546855
  P   -1.857131785  -1.626744093  -5.581156126
  O   -2.778209562  -0.327311620  -5.984812482
  C   -2.045578423   0.860422188  -6.354089202
  H   -2.872250917   1.541319757  -6.654699288
  H   -1.412332032   0.664400032  -7.243998848
  C   -1.229095300   1.440982062  -5.187975946
  H   -0.203318568   0.991119082  -5.092877889
  O   -0.962347039   2.840224790  -5.534485138
  C   -1.527293736   3.727713942  -4.569642582
  H   -0.759446181   4.528532242  -4.417895275
  C   -1.960877563   1.453358526  -3.819037641
  H   -2.999902052   1.050089949  -3.872901063
  C   -1.893495182   2.913786115  -3.336730216
  H   -1.084652328   2.987123171  -2.557992175
  H   -2.799875903   3.235407835  -2.795600740
  O   -1.141011577   0.751391805  -2.862530554
  O   -0.675785276  -1.266705021  -4.688953596
  O   -2.796896558  -2.916995379  -5.293895183
  N   -2.723435180   4.349392625  -5.237045707
  C   -2.706903934   4.990691607  -6.473125666
  C   -4.040957754   5.447074256  -6.724092472
  N   -4.871345209   5.068309897  -5.660104266
  C   -4.095913679   4.418114453  -4.792632086
  N   -1.677309143   5.229065088  -7.382792411
  C   -2.026748791   5.959793165  -8.536192660
  N   -3.240776263   6.411507516  -8.800384098
  C   -4.321399575   6.184786403  -7.919407487
  H   -1.210891573   6.171215013  -9.264510718
  N   -5.528152302   6.667765410  -8.249720643
  H   -5.676793413   7.195560624  -9.111343238
  H   -6.333316376   6.531602459  -7.635704451
  H   -4.415285714   3.987420502  -3.846456153
  P   -1.554416731  -0.806368338  -2.583778309
  O   -0.114742263  -1.433544067  -2.176989588
  C    0.016015486  -2.868082359  -2.113535118
  H   -0.364145758  -3.356320398  -3.034400799
  H    1.128922616  -2.950879182  -2.098627002
  C   -0.611258314  -3.447853443  -0.840934462
  H   -0.605060139  -2.727525614   0.014246046
  O   -2.024360641  -3.700243877  -1.109544882
  C   -2.296092008  -5.111015625  -1.165595238
  H   -3.320729361  -5.209008654  -0.732138893
  C    0.000950042  -4.811760175  -0.423842343
  H    0.808505059  -5.157175739  -1.132263171
  C   -1.185521362  -5.793136421  -0.368770836
  H   -0.900834499  -6.798238488  -0.749380572
  H   -1.508950271  -5.964594708   0.681727901
  O    0.551880173  -4.586579042   0.885437595
  O   -2.594622319  -1.450979441  -3.483573851
  O   -2.280253691  -0.634452439  -1.118891674
  N   -2.346867022  -5.507742900  -2.617003455
  C   -1.172598698  -5.895930490  -3.329689544
  N   -1.334324381  -6.219378446  -4.695861587
  C   -2.566969996  -6.133113180  -5.422498062
  C   -3.718510481  -5.697638442  -4.616783771
  C   -3.585471350  -5.412705210  -3.296965866
  O   -0.069824374  -5.964328611  -2.815238966
  H   -0.486754303  -6.572517476  -5.162525521
  O   -2.529206878  -6.414142944  -6.604780365
  C   -5.013243455  -5.565556838  -5.338806655
  H   -5.875145212  -5.889556843  -4.738847515
  H   -5.188490929  -4.520423801  -5.647421390
  H   -5.028483572  -6.167286437  -6.264066746
  H   -4.442263353  -5.094182793  -2.685807575
  P    1.648116864  -5.723721198   1.384951728
  O    3.006706923  -4.813123877   1.263829907
  C    4.235466418  -5.500073705   0.918171069
  H    4.949692662  -5.087900000   1.666812521
  H    4.169780734  -6.602493632   1.038138663
  C    4.658471522  -5.135825033  -0.508432347
  H    5.756610810  -4.925931905  -0.537242669
  O    4.507789767  -6.334406797  -1.330133198
  C    3.785810608  -6.026495218  -2.537984033
  H    4.535797643  -6.014686604  -3.369327362
  C    3.844504456  -3.998340330  -1.185480659
  H    3.213657896  -3.426974246  -0.460453993
  C    3.064463953  -4.694105521  -2.308404020
  H    1.996663515  -4.869384258  -2.033442711
  H    3.012177477  -4.085684410  -3.235466956
  O    4.703424437  -2.985089995  -1.678843173
  O    1.638131532  -7.012417183   0.679894928
  O    1.345232434  -5.731034747   2.976527624
  N    2.836175182  -7.153774801  -2.797714778
  C    2.307977206  -7.252226843  -4.146250169
  N    1.439427585  -8.293193430  -4.436895439
  C    1.041491672  -9.170584197  -3.454919165
  C    1.529542635  -9.042209909  -2.113965638
  C    2.413798989  -8.035686831  -1.808306838
  O    2.642323956  -6.428576972  -4.991230985
  N    0.132393499 -10.123161971  -3.832114701
  H   -0.132356083 -10.871092357  -3.207870308
  H   -0.148755731 -10.221967902  -4.807062101
  H    0.704435621  -2.490040565  -4.655088165
  H    2.823999497  -7.891251028  -0.787111102
  H    1.203157914  -9.726388041  -1.330431482
  H    5.324113562  -3.313595134  -2.364914204
  H   -3.108114745  -3.031961398  -4.318618322
  H   -2.647892664  -1.479616488  -0.727981740
  H    1.434341873  -4.868665704   3.478974087
  H    1.163439441  -8.383524059  -6.161980913
  H   -0.742892792   4.833062242  -7.227620754

