%mem=64gb
%nproc=28       
%Chk=snap_73.chk
# opt b3lyp/6-31g(d,p)  scf=(xqc, tight)  pop=min    

tetra snap_73 

2     1 
  O    1.563468137  -3.727053583  -6.134059264
  C    1.492938203  -2.557896597  -6.950854245
  H    2.441750897  -2.584441719  -7.524845512
  H    1.482823589  -1.658282854  -6.306936342
  C    0.276347971  -2.570844071  -7.887156094
  H    0.064643212  -1.565033967  -8.313957458
  O    0.587673520  -3.383005513  -9.068601034
  C   -0.320765982  -4.474225764  -9.180397163
  H   -0.476316116  -4.644554997 -10.272855043
  C   -0.984159416  -3.216654540  -7.253536053
  H   -0.700070955  -3.790722447  -6.333161229
  C   -1.546080952  -4.146753109  -8.333466084
  H   -2.333074937  -3.627840969  -8.925620780
  H   -2.074879935  -5.037225529  -7.915092679
  O   -1.934235960  -2.178027028  -6.988042216
  N    0.432305096  -5.670337153  -8.624091289
  C   -0.067110316  -6.958865276  -8.359078900
  C    1.034448804  -7.750632301  -7.938042001
  N    2.167525340  -6.926622318  -7.895541881
  C    1.795756040  -5.676358464  -8.285381972
  N   -1.369215766  -7.392054263  -8.429680052
  C   -1.575703600  -8.653481998  -7.967660479
  N   -0.536001182  -9.542095608  -7.629882184
  C    0.867499618  -9.136825203  -7.540134905
  N   -2.887592400  -9.051609711  -7.693358180
  H   -3.602050052  -8.333009770  -7.865719492
  H   -3.185164638  -9.985872342  -7.957264921
  O    1.670189320  -9.959829554  -7.192290417
  H    2.431035885  -4.786621692  -8.332429138
  H   -0.741812113 -10.509311452  -7.342884151
  P   -2.116422937  -1.854498232  -5.361991029
  O   -2.353080479  -0.217762576  -5.447067584
  C   -1.190721822   0.610261612  -5.285308834
  H   -1.224246586   1.284497285  -6.166133784
  H   -0.243025463   0.034412660  -5.298233402
  C   -1.326059289   1.409467200  -3.980089000
  H   -0.449965969   1.261830360  -3.299771266
  O   -1.236468825   2.832664237  -4.335742688
  C   -2.367210440   3.562673258  -3.848491024
  H   -1.947805746   4.511771031  -3.425314358
  C   -2.673613202   1.231409077  -3.229141170
  H   -3.437064590   0.673071239  -3.825686534
  C   -3.122607495   2.662481315  -2.880405986
  H   -2.835801894   2.878513836  -1.817837557
  H   -4.221336682   2.767895233  -2.885011296
  O   -2.458452978   0.612458715  -1.956475141
  O   -0.887685726  -2.350550397  -4.682600182
  O   -3.630708867  -2.404474372  -5.235172806
  N   -3.181486370   3.914427682  -5.065792799
  C   -2.674791746   4.145415515  -6.339462187
  C   -3.784798050   4.496009213  -7.174684558
  N   -4.963243482   4.472585068  -6.416529632
  C   -4.605964781   4.129682575  -5.178539707
  N   -1.374527923   4.097848004  -6.842196075
  C   -1.225560656   4.427847299  -8.201857278
  N   -2.220648166   4.757144350  -9.009529121
  C   -3.555705237   4.815495538  -8.551030867
  H   -0.193017379   4.405584496  -8.616523314
  N   -4.518568632   5.163811627  -9.418192140
  H   -4.308907007   5.394253555 -10.389573163
  H   -5.494490299   5.220638556  -9.121243674
  H   -5.272149067   4.030659952  -4.325124122
  P   -2.227471763  -1.032057705  -1.948311032
  O   -0.610670319  -0.895823636  -1.759752322
  C    0.215801781  -2.085540482  -1.848750865
  H    0.102519439  -2.559293583  -2.857611852
  H    1.239400572  -1.677552472  -1.733466077
  C   -0.225728376  -2.974591935  -0.691321907
  H   -0.126000526  -2.472110324   0.304023449
  O   -1.674735860  -3.076648489  -0.923100990
  C   -2.057037009  -4.459619404  -1.194957572
  H   -3.034120986  -4.544653261  -0.654749447
  C    0.319034635  -4.415779600  -0.618825201
  H    1.037868266  -4.660586292  -1.451235984
  C   -0.930013363  -5.316756332  -0.623857335
  H   -0.751043776  -6.262597232  -1.184186444
  H   -1.195012011  -5.659990517   0.401086673
  O    1.022870616  -4.435769705   0.634082786
  O   -2.770991714  -1.640089682  -3.207425054
  O   -3.089074772  -1.298534683  -0.605857095
  N   -2.276408937  -4.665057196  -2.646983649
  C   -1.211716296  -4.958626875  -3.557594200
  N   -1.600284862  -5.471574518  -4.816950636
  C   -2.959880004  -5.641631346  -5.253930070
  C   -3.968420701  -5.074276841  -4.341640684
  C   -3.618800939  -4.623877221  -3.114192644
  O   -0.030129490  -4.844387344  -3.273733997
  H   -0.847364583  -5.921077046  -5.376739677
  O   -3.131568083  -6.212881893  -6.309618039
  C   -5.355238382  -5.003494213  -4.873983223
  H   -6.112933288  -4.809195483  -4.104591127
  H   -5.435112009  -4.201631321  -5.632697990
  H   -5.642780160  -5.940602240  -5.381048110
  H   -4.353664027  -4.208185005  -2.412256740
  P    1.676884733  -5.879606577   1.118895284
  O    3.257568538  -5.469825316   1.055181490
  C    4.195294246  -6.460259991   0.564497712
  H    5.055410985  -6.317298442   1.259353663
  H    3.815485498  -7.500779058   0.654858483
  C    4.598879482  -6.156725324  -0.880564643
  H    5.699536527  -6.312300955  -1.004308016
  O    3.990951999  -7.189558782  -1.712868674
  C    3.453766433  -6.600829096  -2.913880609
  H    4.184372841  -6.815042125  -3.736540552
  C    4.162345751  -4.777013700  -1.448857397
  H    3.704154887  -4.113917866  -0.675378542
  C    3.237152368  -5.108191791  -2.628662722
  H    2.167171523  -4.883727983  -2.399221859
  H    3.448971309  -4.483738296  -3.519959433
  O    5.287370710  -4.013212288  -1.845314332
  O    1.209186063  -7.066168994   0.389240452
  O    1.354863145  -5.803951066   2.705089397
  N    2.179069081  -7.314306163  -3.229576475
  C    1.752343205  -7.278337785  -4.632348499
  N    0.504960560  -7.782313088  -4.951703480
  C   -0.261186518  -8.369180038  -3.976247804
  C    0.191971496  -8.491527951  -2.625327357
  C    1.412394086  -7.957515674  -2.274695233
  O    2.538557639  -6.795809757  -5.435440748
  N   -1.530081791  -8.756160222  -4.359856895
  H   -2.079945236  -9.365831284  -3.773514050
  H   -1.784321068  -8.718186613  -5.337186364
  H    0.845157409  -3.713420736  -5.441580036
  H    1.818765982  -8.020851409  -1.240527987
  H   -0.397882773  -9.016635364  -1.876454317
  H    5.800564887  -4.435370965  -2.568330649
  H   -4.086218353  -2.246904114  -4.327293003
  H   -2.671135566  -1.802536591   0.160487654
  H    1.804753313  -5.090533165   3.246801226
  H    3.038187338  -7.187406994  -7.416325524
  H   -0.599904329   3.826067322  -6.219630663

