%mem=64gb
%nproc=28       
%Chk=snap_97.chk
# opt b3lyp/6-31g(d,p)  scf=(xqc, tight)  pop=min    

tetra snap_97 

2     1 
  O    2.682588960  -4.727837892  -7.712752251
  C    2.286907289  -3.505896104  -8.344278128
  H    2.796662777  -3.580494487  -9.334578025
  H    2.703766980  -2.655112883  -7.771314104
  C    0.779300475  -3.343406235  -8.540440938
  H    0.559652923  -2.332988274  -8.973179242
  O    0.354339349  -4.283096451  -9.586354889
  C   -0.821899559  -4.983912911  -9.198477112
  H   -1.467532054  -5.060523715 -10.105224839
  C   -0.151358290  -3.602053853  -7.326866927
  H    0.320113545  -4.228845733  -6.535459923
  C   -1.383996223  -4.269634609  -7.966806856
  H   -2.141621647  -3.508860693  -8.253952298
  H   -1.929372214  -4.942945154  -7.269342475
  O   -0.433005190  -2.291472700  -6.815152837
  N   -0.389085567  -6.383740498  -8.816386890
  C   -1.244176742  -7.487543386  -8.593651877
  C   -0.496645722  -8.431051636  -7.830291481
  N    0.787285308  -7.900904820  -7.620358791
  C    0.836464683  -6.674321195  -8.190849333
  N   -2.523834730  -7.681204787  -9.040829365
  C   -3.100880564  -8.849798995  -8.617969904
  N   -2.443638304  -9.812750520  -7.811356471
  C   -1.089707242  -9.635190399  -7.311728694
  N   -4.414882360  -9.077582028  -8.968289377
  H   -4.865961018  -8.428574766  -9.610789790
  H   -4.835223687  -9.993243290  -8.893110959
  O   -0.631163046 -10.464763871  -6.559618341
  H    1.730563614  -5.953326759  -8.209851879
  H   -2.944683246 -10.648386739  -7.481227486
  P   -1.168575423  -2.179266165  -5.329195088
  O   -1.958724524  -0.759011206  -5.655389093
  C   -1.321498965   0.435368016  -5.171069359
  H   -1.590776610   1.187832435  -5.941766430
  H   -0.218484411   0.350603292  -5.122440460
  C   -1.930474635   0.778390949  -3.799770629
  H   -1.343432247   0.357068892  -2.944260668
  O   -1.783549104   2.214863499  -3.580873056
  C   -3.046879235   2.881292545  -3.643514834
  H   -3.027440308   3.622777581  -2.802786147
  C   -3.449568018   0.464740383  -3.741967368
  H   -3.810422989  -0.101678099  -4.638271392
  C   -4.146209072   1.828969855  -3.572636246
  H   -4.652106655   1.845159798  -2.571138731
  H   -4.970159199   1.961849365  -4.294764423
  O   -3.829873690  -0.266696171  -2.564676816
  O   -0.172606785  -2.117549694  -4.234208052
  O   -2.250996900  -3.367473618  -5.551071496
  N   -3.009625877   3.648183620  -4.938831340
  C   -1.866005160   4.256996372  -5.450066268
  C   -2.259698041   4.959864622  -6.633155937
  N   -3.632205919   4.773334858  -6.849005102
  C   -4.069694962   4.001978310  -5.852250558
  N   -0.545242144   4.264276850  -5.001663154
  C    0.359855238   5.027755162  -5.760902020
  N    0.039503525   5.703284726  -6.852907613
  C   -1.280737500   5.717473612  -7.354573796
  H    1.416094208   5.058796586  -5.409301815
  N   -1.535309244   6.436320419  -8.458113368
  H   -0.803728936   6.971486034  -8.928191272
  H   -2.476861950   6.479590480  -8.851733751
  H   -5.093860150   3.668628176  -5.702905311
  P   -3.068583112  -1.707368600  -2.268699508
  O   -1.917706587  -1.041942761  -1.315849216
  C   -0.736986952  -1.853619263  -1.082810616
  H   -0.306366502  -2.192728079  -2.057256511
  H   -0.031390288  -1.148348617  -0.594289629
  C   -1.185370766  -2.979196454  -0.161350048
  H   -1.504315802  -2.618287669   0.845572246
  O   -2.413658390  -3.465646591  -0.807994884
  C   -2.393151180  -4.928014414  -0.928498276
  H   -3.386461143  -5.225992447  -0.508007345
  C   -0.245561049  -4.194297190  -0.055959764
  H    0.515385538  -4.205814253  -0.891864504
  C   -1.193813702  -5.406300368  -0.116030982
  H   -0.689082812  -6.305727405  -0.532406145
  H   -1.495974508  -5.712508032   0.911343228
  O    0.390643267  -4.082909061   1.220812123
  O   -2.595273482  -2.361919931  -3.526906084
  O   -4.308406207  -2.423580637  -1.512593868
  N   -2.356112881  -5.277609684  -2.373562968
  C   -1.127718689  -5.506757984  -3.082119383
  N   -1.248462201  -6.023455110  -4.388029306
  C   -2.487869642  -6.278952044  -5.056936389
  C   -3.688239510  -5.848208911  -4.320037552
  C   -3.597602680  -5.383620438  -3.049972032
  O   -0.033579128  -5.303282230  -2.586837358
  H   -0.358569790  -6.237911743  -4.895657119
  O   -2.431244225  -6.789157298  -6.158019925
  C   -4.984829303  -5.947773009  -5.044617662
  H   -4.840258043  -6.251964550  -6.097136069
  H   -5.650107191  -6.698789160  -4.589465986
  H   -5.526353480  -4.990109729  -5.063236073
  H   -4.485036927  -5.061532211  -2.483339557
  P    1.821492920  -4.930289647   1.345073678
  O    2.758248761  -3.973514315   0.376785920
  C    3.531070302  -4.666894390  -0.633034873
  H    4.538761424  -4.849806959  -0.200502521
  H    3.072913012  -5.635917790  -0.924882718
  C    3.614979343  -3.688459060  -1.814558393
  H    4.216290845  -2.780096809  -1.577246980
  O    4.390326239  -4.404952007  -2.834945454
  C    3.629260701  -4.605181491  -4.026581622
  H    4.352224453  -4.432420442  -4.860379292
  C    2.266535248  -3.325724519  -2.470422233
  H    1.404409024  -3.874706600  -2.003131871
  C    2.427056894  -3.670851390  -3.959311517
  H    1.475482075  -4.096139481  -4.349604442
  H    2.595262454  -2.755691545  -4.561260291
  O    2.045049969  -1.926324258  -2.284457467
  O    1.795823832  -6.349526562   0.992971026
  O    2.232449872  -4.477997426   2.842546553
  N    3.228168955  -6.072272528  -4.067667932
  C    2.129778529  -6.522077426  -4.885567332
  N    1.813649690  -7.856302285  -4.941805309
  C    2.495477204  -8.770317489  -4.169309835
  C    3.587326897  -8.340124609  -3.334511890
  C    3.929023285  -7.013057569  -3.309767889
  O    1.489589227  -5.697763076  -5.561040107
  N    2.088147453 -10.063884140  -4.293030874
  H    2.504885389 -10.810772219  -3.756498379
  H    1.286871536 -10.304300770  -4.878863965
  H    2.401197702  -4.770677370  -6.750821457
  H    4.770339517  -6.629950075  -2.703206964
  H    4.138458948  -9.063463845  -2.732021203
  H    1.326632377  -1.631440478  -2.914522474
  H   -2.840134802  -3.592263745  -4.732073622
  H   -4.252396487  -2.514939501  -0.508252927
  H    2.165987905  -3.503760582   3.073740027
  H    1.450644055  -8.287883815  -6.941173488
  H   -0.284985198   3.708738984  -4.172422652

