%mem=64gb
%nproc=28       
%Chk=snap_64.chk
# opt b3lyp/6-31g(d,p)  scf=(xqc, tight)  pop=min    

tetra snap_64 

2     1 
  O    1.545824560  -4.707801890  -4.914337175
  C    2.035925701  -3.467310563  -5.427128305
  H    3.099193791  -3.698237884  -5.673283573
  H    1.999727538  -2.693523576  -4.636251869
  C    1.287865294  -3.012121372  -6.682263492
  H    1.503182415  -1.935568585  -6.899665218
  O    1.851462091  -3.716241160  -7.836582938
  C    0.836575653  -4.338274467  -8.614573812
  H    1.104076054  -4.149863392  -9.684994088
  C   -0.237935217  -3.280631145  -6.712473074
  H   -0.577062497  -3.989101585  -5.924473821
  C   -0.517316631  -3.814617034  -8.126114908
  H   -0.889231666  -2.987865477  -8.774427673
  H   -1.328142034  -4.567770161  -8.147441972
  O   -0.880884094  -1.999518432  -6.613690581
  N    0.943532504  -5.821407624  -8.373159344
  C    0.612861712  -6.836234475  -9.293772861
  C    0.771266758  -8.077018415  -8.609224245
  N    1.186992694  -7.794914427  -7.299786768
  C    1.290031852  -6.452061532  -7.163446459
  N    0.202867221  -6.681411089 -10.589842056
  C   -0.050918792  -7.861700976 -11.249805109
  N    0.099377002  -9.132683188 -10.655702844
  C    0.521399904  -9.338627139  -9.267935746
  N   -0.501303556  -7.778037796 -12.543417851
  H   -0.582599604  -6.866344670 -12.986578870
  H   -0.627909665  -8.587882913 -13.133200549
  O    0.601667898 -10.470264203  -8.873666244
  H    1.621670678  -5.913232707  -6.238232275
  H   -0.099174781  -9.990321214 -11.192078965
  P   -1.766804775  -1.717978121  -5.246609861
  O   -2.775212336  -0.572203271  -5.874354275
  C   -2.203875828   0.745120224  -6.002657949
  H   -3.003623118   1.282613120  -6.557081213
  H   -1.291235365   0.721691185  -6.629020484
  C   -1.954153467   1.363935357  -4.618679974
  H   -0.948660690   1.109350441  -4.186266340
  O   -1.874901478   2.813672139  -4.785918676
  C   -2.983043894   3.472359505  -4.165411038
  H   -2.536883421   4.333955787  -3.603631998
  C   -3.109236717   1.080615359  -3.623027707
  H   -3.857740046   0.343526975  -4.009226706
  C   -3.745549710   2.454102477  -3.326305360
  H   -3.628361963   2.666213887  -2.232426517
  H   -4.836298530   2.434978081  -3.498036080
  O   -2.548184662   0.651898261  -2.384709827
  O   -0.886827184  -1.244675878  -4.127004826
  O   -2.611229253  -3.099506879  -5.203614675
  N   -3.786781153   4.037518524  -5.310206498
  C   -3.262523476   4.385552218  -6.550636251
  C   -4.320773499   4.994511958  -7.299967795
  N   -5.484653086   5.019737367  -6.519166637
  C   -5.166190953   4.462136505  -5.349263621
  N   -1.982120560   4.236846464  -7.083601664
  C   -1.787860780   4.752049739  -8.376210901
  N   -2.733360446   5.322047701  -9.106951264
  C   -4.049951605   5.480103121  -8.620099356
  H   -0.765130123   4.667125983  -8.806474595
  N   -4.952299412   6.070745489  -9.418747105
  H   -4.701306303   6.409440987 -10.348655293
  H   -5.914657489   6.215405928  -9.110373223
  H   -5.830994693   4.336725211  -4.498211661
  P   -2.259466066  -0.978846684  -2.169556457
  O   -0.708232308  -0.751170400  -1.731788591
  C    0.192179856  -1.883786045  -1.689609521
  H    0.180517354  -2.443942927  -2.647750244
  H    1.178875478  -1.400940159  -1.543979539
  C   -0.268280408  -2.701074807  -0.485080451
  H   -0.178532586  -2.139622637   0.478039160
  O   -1.714857260  -2.801040310  -0.731462669
  C   -2.151774828  -4.178136835  -0.716129314
  H   -3.091831357  -4.141018403  -0.109751784
  C    0.261938346  -4.139227901  -0.324532129
  H    0.881903842  -4.481632044  -1.187203407
  C   -1.005527378  -4.990610021  -0.107828609
  H   -0.896811011  -6.015300653  -0.523911287
  H   -1.183427790  -5.156963785   0.977738071
  O    1.057628575  -4.074279669   0.879310946
  O   -2.899649937  -1.818090368  -3.245756132
  O   -3.171861173  -1.082816579  -0.814387512
  N   -2.492826766  -4.617576702  -2.103058210
  C   -1.488681237  -5.030672631  -3.021511474
  N   -1.895584199  -5.849939598  -4.086425032
  C   -3.266098486  -6.254468501  -4.325845291
  C   -4.253503241  -5.530194636  -3.502845142
  C   -3.863667806  -4.789012875  -2.438187990
  O   -0.311030906  -4.692360673  -2.908053817
  H   -1.147711119  -6.377307458  -4.580154636
  O   -3.439697412  -7.127470847  -5.141843048
  C   -5.682684561  -5.689099638  -3.882262624
  H   -6.114203365  -4.747367659  -4.256101566
  H   -5.819024383  -6.436994735  -4.684240085
  H   -6.303943317  -6.028802662  -3.039199290
  H   -4.579682417  -4.269136215  -1.784434169
  P    1.995328972  -5.395549697   1.182855697
  O    3.349783236  -4.975482448   0.377115532
  C    4.428743656  -5.955368283   0.418748441
  H    5.255510090  -5.405187743   0.922707831
  H    4.182752766  -6.865385852   1.004740681
  C    4.796536858  -6.325793006  -1.016553310
  H    5.882663048  -6.591788120  -1.084220035
  O    4.103798943  -7.567631377  -1.343509576
  C    3.611655068  -7.533219554  -2.692666727
  H    4.146071508  -8.348237763  -3.241590140
  C    4.416075922  -5.290993427  -2.109381638
  H    3.745421992  -4.490963632  -1.731350331
  C    3.817721206  -6.120943848  -3.248111423
  H    2.886041973  -5.674658267  -3.660518791
  H    4.517354183  -6.130753075  -4.116422111
  O    5.603311337  -4.707583509  -2.651659696
  O    1.377685481  -6.694195123   0.858971180
  O    2.438129076  -5.127888483   2.724278854
  N    2.148260075  -7.905303913  -2.634370066
  C    1.440698364  -8.003185204  -3.902443893
  N    0.087725144  -8.272096408  -3.901564348
  C   -0.535242940  -8.589757317  -2.720239475
  C    0.165950489  -8.570650458  -1.473413760
  C    1.495712845  -8.212986615  -1.450548061
  O    2.089424832  -7.834612010  -4.934173687
  N   -1.895427942  -8.824600112  -2.787329725
  H   -2.353477422  -9.339493732  -2.048107117
  H   -2.341006769  -8.881065729  -3.702555107
  H    0.715833890  -4.591631763  -4.370244369
  H    2.082932012  -8.155752297  -0.509623033
  H   -0.331220273  -8.831761337  -0.539196118
  H    5.965572813  -4.016068816  -2.057943432
  H   -3.112148614  -3.262984705  -4.313399761
  H   -2.719820537  -1.028058715   0.068438541
  H    1.861204444  -5.471708934   3.460716655
  H    1.349311681  -8.470493972  -6.526094258
  H   -1.247416309   3.785588552  -6.513233523

