%mem=64gb
%nproc=28       
%Chk=snap_78.chk
# opt b3lyp/6-31g(d,p)  scf=(xqc, tight)  pop=min    

tetra snap_78 

2     1 
  O    1.653210778  -4.079702183  -6.081905513
  C    1.768039452  -3.007723380  -7.017449301
  H    2.734569982  -3.222065022  -7.524878551
  H    1.832152547  -2.044820970  -6.474807332
  C    0.619754031  -2.977645412  -8.030102951
  H    0.595874824  -2.011309894  -8.585659560
  O    0.882657261  -3.985276599  -9.069795067
  C   -0.273365815  -4.776027719  -9.309017135
  H   -0.329909941  -4.941876647 -10.410892923
  C   -0.777744782  -3.338628871  -7.465582179
  H   -0.685640810  -3.997819670  -6.571196605
  C   -1.458160471  -4.090565687  -8.618951461
  H   -1.986072542  -3.387534600  -9.296637636
  H   -2.248406804  -4.788554530  -8.266542113
  O   -1.482841517  -2.124221631  -7.189037381
  N   -0.030027255  -6.122861080  -8.655805650
  C   -0.877026748  -7.240376125  -8.807118763
  C   -0.508123816  -8.174011881  -7.796896443
  N    0.550241814  -7.618877186  -7.063882094
  C    0.813357853  -6.385047558  -7.557774212
  N   -1.863949933  -7.434529626  -9.737064310
  C   -2.542105721  -8.618271662  -9.611126217
  N   -2.274472987  -9.573919763  -8.598017234
  C   -1.252166846  -9.386798909  -7.582182562
  N   -3.566125765  -8.862415161 -10.495735496
  H   -3.723315490  -8.206751172 -11.259381130
  H   -4.009528570  -9.765704240 -10.577346065
  O   -1.154403781 -10.219300338  -6.708865611
  H    1.580541835  -5.672961311  -7.158361180
  H   -2.847361091 -10.424756257  -8.513673944
  P   -1.790111780  -1.925105684  -5.558603891
  O   -2.449222960  -0.415374533  -5.661752027
  C   -1.547453264   0.698371555  -5.605686277
  H   -2.000907683   1.415356634  -6.324036318
  H   -0.523315374   0.450410512  -5.943487746
  C   -1.562814760   1.263365375  -4.174089559
  H   -0.676793978   0.952681432  -3.568675239
  O   -1.389620564   2.714535607  -4.295023245
  C   -2.537819357   3.418190933  -3.816549248
  H   -2.128349900   4.279557515  -3.227576677
  C   -2.908200963   1.030501724  -3.434061044
  H   -3.641083004   0.444138587  -4.043655569
  C   -3.419119647   2.434964931  -3.058684268
  H   -3.306325926   2.566052862  -1.950021000
  H   -4.504160945   2.535860307  -3.234641342
  O   -2.700289114   0.406152307  -2.163320410
  O   -0.533189610  -2.158962661  -4.806213273
  O   -3.094564141  -2.886363471  -5.476782013
  N   -3.216991066   3.975878424  -5.040320726
  C   -2.581152913   4.369565730  -6.212084593
  C   -3.589281914   4.913989768  -7.072260095
  N   -4.833619913   4.847290464  -6.431154619
  C   -4.611418648   4.295822343  -5.237473299
  N   -1.243804961   4.309685939  -6.603843536
  C   -0.949460577   4.836082371  -7.874912481
  N   -1.844993735   5.354796484  -8.699457588
  C   -3.211763326   5.434051185  -8.351860349
  H    0.114558521   4.809286352  -8.200170786
  N   -4.060904081   5.990600839  -9.228851346
  H   -3.739718080   6.357849916 -10.125407986
  H   -5.056304462   6.072905441  -9.016416222
  H   -5.358878974   4.106995404  -4.470949997
  P   -2.361018033  -1.217586450  -2.118188314
  O   -0.826974211  -0.959594483  -1.625852379
  C    0.088919499  -2.086270329  -1.620782546
  H    0.130997114  -2.559823691  -2.634014751
  H    1.063086544  -1.608385643  -1.393398676
  C   -0.426936200  -2.993290445  -0.506917118
  H   -0.470332643  -2.473711852   0.484299634
  O   -1.833708608  -3.182033954  -0.897120793
  C   -2.126157022  -4.588080981  -1.122203801
  H   -3.138773255  -4.705272946  -0.662949258
  C    0.188351248  -4.396013708  -0.344893195
  H    1.000567820  -4.603546691  -1.096657212
  C   -1.001605501  -5.370196357  -0.441307228
  H   -0.723289594  -6.309602141  -0.963704091
  H   -1.316044470  -5.698565957   0.574326725
  O    0.700231681  -4.393543521   1.003638235
  O   -2.611451123  -1.884611646  -3.432956831
  O   -3.438601894  -1.581170519  -0.962248239
  N   -2.211821676  -4.859988459  -2.584040556
  C   -1.032795065  -5.015326694  -3.378000435
  N   -1.210837597  -5.549953652  -4.670996986
  C   -2.479977884  -5.839270190  -5.279212890
  C   -3.644065880  -5.542636623  -4.425052846
  C   -3.487996144  -5.091170197  -3.155887861
  O    0.084058674  -4.743950904  -2.971041948
  H   -0.345313036  -5.869857980  -5.140894281
  O   -2.458037579  -6.277389986  -6.410427005
  C   -4.984451205  -5.750826334  -5.036661720
  H   -5.516373805  -4.797758220  -5.190296402
  H   -4.910048545  -6.221051905  -6.033718674
  H   -5.628536126  -6.399691666  -4.424740486
  H   -4.348058303  -4.876643333  -2.506442028
  P    1.875126314  -5.512728553   1.306712885
  O    3.176594554  -4.617694740   0.915521556
  C    4.415176832  -5.340179665   0.667289577
  H    5.127992856  -4.862216676   1.377353618
  H    4.350683838  -6.427365781   0.879069656
  C    4.823100695  -5.093605953  -0.787125417
  H    5.936087004  -5.034203443  -0.872696922
  O    4.476729446  -6.283813292  -1.555334380
  C    3.687103917  -5.929198336  -2.706257197
  H    4.355598008  -6.059775950  -3.596367754
  C    4.125647948  -3.879194520  -1.463777785
  H    3.621625894  -3.207097597  -0.728427505
  C    3.180963303  -4.498390221  -2.500707421
  H    2.118910582  -4.484680451  -2.157804792
  H    3.155428361  -3.932168707  -3.455435615
  O    5.080518184  -3.009626686  -2.046472678
  O    1.700084899  -6.817905960   0.640786569
  O    1.909924158  -5.487194415   2.929410592
  N    2.581413061  -6.933669850  -2.823222680
  C    1.911277704  -6.987395816  -4.112220436
  N    1.012051228  -8.015070527  -4.345047463
  C    0.730282004  -8.937559295  -3.367435721
  C    1.327981629  -8.830446079  -2.067917719
  C    2.262914970  -7.850691266  -1.828376480
  O    2.150299218  -6.139883485  -4.960869720
  N   -0.168461924  -9.913386645  -3.707181126
  H   -0.339329753 -10.703571946  -3.103520602
  H   -0.499297119  -9.995592560  -4.670875078
  H    0.997232130  -3.872363735  -5.369267692
  H    2.792180864  -7.754200886  -0.858481330
  H    1.061718191  -9.526068976  -1.272915783
  H    5.587750984  -3.435650319  -2.771582361
  H   -3.473147901  -3.025240856  -4.533391474
  H   -3.108204405  -1.799213066  -0.039648535
  H    1.433558957  -6.207353648   3.430039001
  H    0.941696566  -8.054478527  -6.191688400
  H   -0.546872977   3.896693373  -5.965669044

