%mem=64gb
%nproc=28       
%Chk=snap_198.chk
# opt b3lyp/6-31g(d,p)  scf=(xqc, tight)  pop=min    

tetra snap_198 

2     1 
  O    0.656248028  -1.621304256  -5.835581160
  C    0.866090602  -2.580182947  -6.862342835
  H    1.173710694  -3.558049864  -6.423298707
  H    1.726489653  -2.172717418  -7.434222494
  C   -0.381772912  -2.694175162  -7.752768044
  H   -0.595741500  -1.739110881  -8.286668437
  O   -0.055333086  -3.642898270  -8.821860440
  C   -1.030492899  -4.676037839  -8.914257455
  H   -1.196295570  -4.865142245 -10.003672461
  C   -1.660704670  -3.243832439  -7.069532699
  H   -1.457046396  -3.708291602  -6.076119893
  C   -2.237999345  -4.252181700  -8.074883336
  H   -3.016002586  -3.756859480  -8.704000861
  H   -2.771216699  -5.094322475  -7.595790581
  O   -2.605431763  -2.152379132  -6.991811687
  N   -0.387587239  -5.905733675  -8.315923779
  C   -0.828655593  -7.239923772  -8.426884454
  C    0.021799403  -8.012629151  -7.577036645
  N    0.966143365  -7.154347592  -6.999531806
  C    0.706895438  -5.901068901  -7.424246229
  N   -1.876014319  -7.734019314  -9.142913519
  C   -2.059713832  -9.097423332  -9.022098221
  N   -1.233375085  -9.936166024  -8.233020610
  C   -0.160150011  -9.431110900  -7.401609189
  N   -3.058021762  -9.664927593  -9.769014762
  H   -3.669371608  -9.062260833 -10.318655287
  H   -3.377984234 -10.611584558  -9.614994636
  O    0.422590258 -10.187654579  -6.658816433
  H    1.259860608  -4.988185674  -7.117083703
  H   -1.459146599 -10.935919664  -8.126858002
  P   -2.849061571  -1.543920962  -5.480680842
  O   -2.847429744   0.084539538  -5.706826928
  C   -1.571992467   0.704566235  -5.961737627
  H   -1.885978841   1.709520856  -6.317058841
  H   -1.026277803   0.188487949  -6.778235026
  C   -0.706933507   0.808475971  -4.693917074
  H    0.066355105  -0.004697768  -4.625073272
  O    0.115825274   2.010062230  -4.844270934
  C   -0.232042768   2.995921680  -3.873138352
  H    0.735983489   3.475678949  -3.576289016
  C   -1.507171078   0.980894839  -3.378530574
  H   -2.616413771   0.979598483  -3.535982970
  C   -1.003879741   2.297171968  -2.759790666
  H   -0.326565975   2.057665722  -1.898528204
  H   -1.816333657   2.889232368  -2.305333785
  O   -1.095548825  -0.050760336  -2.457745097
  O   -1.689950795  -2.033209038  -4.615887907
  O   -4.388427689  -1.944834431  -5.272063705
  N   -1.051921653   4.012450309  -4.623103183
  C   -0.755558416   4.472205824  -5.904302468
  C   -1.764148203   5.428360054  -6.247948124
  N   -2.680940404   5.537823176  -5.193346259
  C   -2.262833405   4.700450623  -4.243498668
  N    0.279265316   4.157109286  -6.784541711
  C    0.284896445   4.856937557  -8.006352530
  N   -0.616992156   5.757790498  -8.359488568
  C   -1.693261483   6.100495913  -7.511216473
  H    1.114379252   4.632106157  -8.714939781
  N   -2.569399500   7.023086086  -7.935013559
  H   -2.471398424   7.475700599  -8.844990895
  H   -3.358633553   7.307636466  -7.352684450
  H   -2.737542495   4.538334655  -3.279434826
  P   -2.046968567  -1.405475123  -2.442460515
  O   -0.847554391  -2.493499911  -2.466612042
  C   -1.210026877  -3.885464958  -2.680780679
  H   -2.036728493  -4.000378804  -3.408806146
  H   -0.274238503  -4.275000631  -3.153812232
  C   -1.553520056  -4.529394035  -1.335414381
  H   -1.755446525  -3.772493383  -0.529034858
  O   -2.831993841  -5.204393963  -1.520465326
  C   -2.695320441  -6.621096264  -1.403317465
  H   -3.582035329  -6.935386390  -0.798670013
  C   -0.546944647  -5.598876323  -0.841535067
  H    0.359420132  -5.686606657  -1.484156233
  C   -1.337644556  -6.915542954  -0.759015009
  H   -0.790238590  -7.753045390  -1.232513112
  H   -1.465926696  -7.212599954   0.306999252
  O   -0.239156335  -5.217319316   0.519712453
  O   -3.308448034  -1.220861914  -3.257833517
  O   -2.457391557  -1.573393729  -0.872439020
  N   -2.830075482  -7.225345854  -2.779879483
  C   -1.815788618  -7.067334693  -3.764353419
  N   -2.045865154  -7.707096633  -5.005641420
  C   -3.209710903  -8.486368664  -5.337041063
  C   -4.219746605  -8.550568770  -4.274948557
  C   -4.016345090  -7.935912561  -3.082714757
  O   -0.794407047  -6.421067715  -3.590271912
  H   -1.292008863  -7.658669892  -5.699212113
  O   -3.227402711  -8.985308483  -6.444825669
  C   -5.447998781  -9.333410716  -4.581154496
  H   -6.227522730  -9.242951816  -3.811952929
  H   -5.900853345  -9.017535811  -5.536162219
  H   -5.219363455 -10.408731823  -4.682228616
  H   -4.767697546  -7.968405451  -2.280340173
  P    1.354942074  -5.103619626   0.898291360
  O    1.606636784  -3.524702740   0.581761300
  C    2.989071185  -3.094640936   0.456602362
  H    3.044728583  -2.242096360   1.171259793
  H    3.726371185  -3.870561175   0.747410694
  C    3.228385162  -2.625342593  -0.979636070
  H    3.966490415  -1.783315779  -1.007520657
  O    3.895628838  -3.719998599  -1.685368615
  C    3.346079886  -3.901267823  -2.994830370
  H    4.190244560  -3.727754012  -3.707606470
  C    1.961914630  -2.271866760  -1.788684776
  H    1.017743499  -2.568063230  -1.272951837
  C    2.150753118  -2.959527763  -3.149916677
  H    1.228148590  -3.480678723  -3.480025258
  H    2.344670892  -2.202809470  -3.943349211
  O    1.969158710  -0.846624942  -1.950279210
  O    2.225813082  -6.092017547   0.234183940
  O    1.305348738  -5.097537448   2.522538789
  N    2.949318620  -5.358345411  -3.123052019
  C    2.387362060  -5.772998192  -4.391862653
  N    2.191382163  -7.123288769  -4.625543869
  C    2.425053806  -8.049338826  -3.635574614
  C    2.961342547  -7.637975957  -2.373719394
  C    3.244492753  -6.310854592  -2.150528344
  O    2.103258305  -4.917440475  -5.227287660
  N    2.088004457  -9.344538966  -3.928854525
  H    2.348924195 -10.105731841  -3.319386627
  H    1.739544837  -9.600344680  -4.851000884
  H    0.018861474  -1.968132120  -5.132954008
  H    3.703606298  -5.946149524  -1.207006982
  H    3.142488967  -8.362358442  -1.578275653
  H    1.047526945  -0.554719416  -2.144446481
  H   -4.786295398  -1.718683415  -4.344468640
  H   -3.360378889  -1.283097907  -0.573180792
  H    1.292486728  -5.969619637   3.004888978
  H    1.650081691  -7.418612510  -6.196785456
  H    0.951495849   3.415313610  -6.543170043

