%mem=64gb
%nproc=28       
%Chk=snap_10.chk
# opt b3lyp/6-31g(d,p)  scf=(xqc, tight)  pop=min    

tetra snap_10 

2     1 
  O    2.090215796  -3.460261624  -7.811911376
  C    2.061493375  -2.445594813  -8.826600406
  H    2.787031050  -2.819578863  -9.584049502
  H    2.432940682  -1.495083703  -8.396716547
  C    0.672556097  -2.275412451  -9.451404786
  H    0.536465812  -1.251458112  -9.874382842
  O    0.600998531  -3.156300804 -10.624764391
  C   -0.538317022  -4.001616605 -10.557734208
  H   -0.911218673  -4.113058429 -11.606184585
  C   -0.525723135  -2.691815923  -8.563099920
  H   -0.211577906  -3.412553135  -7.751766444
  C   -1.492830087  -3.397572253  -9.520920785
  H   -2.196844431  -2.672174211  -9.982951460
  H   -2.136027214  -4.138196295  -9.007130612
  O   -1.144401673  -1.487836959  -8.042282079
  N   -0.051837709  -5.356657638 -10.093393665
  C   -0.428494179  -6.597803232 -10.650404361
  C    0.236029117  -7.604798156  -9.896513215
  N    0.997911537  -6.962276740  -8.899648602
  C    0.818227214  -5.623132510  -9.021514137
  N   -1.274578031  -6.814159462 -11.700943644
  C   -1.450779435  -8.139307473 -12.029565127
  N   -0.814002823  -9.199093388 -11.347512784
  C    0.086546214  -9.005076878 -10.211025836
  N   -2.313487811  -8.420639027 -13.056682977
  H   -2.749284072  -7.654741017 -13.567232535
  H   -2.456010848  -9.353164630 -13.416093412
  O    0.565333739  -9.983062852  -9.701197172
  H    1.291807167  -4.808946025  -8.360803953
  H   -0.965355597 -10.177839217 -11.633417870
  P   -0.882108140  -1.400734486  -6.419223830
  O   -1.342683740   0.149977967  -6.102089588
  C   -0.765763943   0.701136060  -4.888412407
  H   -0.400732169   1.704403249  -5.212089262
  H    0.104873182   0.111397840  -4.521659711
  C   -1.841633788   0.854130218  -3.806228674
  H   -1.406078149   0.700451155  -2.783265314
  O   -2.204285583   2.269706996  -3.750133116
  C   -3.538485383   2.481738573  -4.189240114
  H   -3.964602666   3.234673721  -3.486012214
  C   -3.160997820   0.064948183  -4.023048816
  H   -3.137542637  -0.654324313  -4.878802434
  C   -4.255877072   1.133059637  -4.203123689
  H   -4.974323243   1.049950994  -3.347321008
  H   -4.877209998   0.953908757  -5.099760700
  O   -3.559918677  -0.637686350  -2.833274835
  O    0.494818730  -1.781523313  -6.006674816
  O   -2.112510675  -2.272309631  -5.851086215
  N   -3.440215144   3.102007450  -5.555664730
  C   -3.469779888   4.463454087  -5.855870716
  C   -3.133843661   4.590671907  -7.243044671
  N   -2.868680186   3.320832265  -7.779704712
  C   -3.032631328   2.453104237  -6.782765644
  N   -3.774682241   5.588707584  -5.088474658
  C   -3.724137156   6.831979448  -5.753346614
  N   -3.417123076   6.989354006  -7.028205054
  C   -3.099116892   5.885825728  -7.849889480
  H   -3.964866236   7.737210881  -5.149959825
  N   -2.781655872   6.122045252  -9.132645379
  H   -2.767990336   7.069337997  -9.512511306
  H   -2.547374510   5.356603597  -9.764954839
  H   -2.875615642   1.370645200  -6.830396507
  P   -2.597504234  -1.876602522  -2.302805307
  O   -1.840345792  -0.993459521  -1.149030449
  C   -0.583749700  -1.515547597  -0.657456988
  H    0.144416473  -1.615821813  -1.496664987
  H   -0.248604233  -0.723047843   0.043817857
  C   -0.874054270  -2.838318083   0.048640235
  H   -1.447497246  -2.718815240   0.999879515
  O   -1.794859312  -3.537017883  -0.857203304
  C   -1.273949250  -4.864863719  -1.218457654
  H   -2.143776215  -5.537874582  -1.009250762
  C    0.356146934  -3.749647026   0.240581806
  H    1.286985380  -3.339955348  -0.228906732
  C   -0.052354625  -5.108511869  -0.339003629
  H    0.798083572  -5.578327889  -0.896158342
  H   -0.279913802  -5.835909011   0.474752787
  O    0.493582108  -3.823724706   1.678353383
  O   -1.705227964  -2.387980021  -3.389091884
  O   -3.807047727  -2.790285787  -1.741793060
  N   -0.978689114  -4.865376394  -2.671465024
  C    0.099257238  -4.082234322  -3.204636468
  N    0.302604877  -4.190755690  -4.601877697
  C   -0.431744950  -5.050511164  -5.467998168
  C   -1.491648342  -5.827999531  -4.838520335
  C   -1.726025241  -5.729093968  -3.502388040
  O    0.823012234  -3.389707924  -2.511508100
  H    0.991082071  -3.528113538  -5.016430936
  O   -0.117951655  -5.033951465  -6.657588131
  C   -2.276538543  -6.756225745  -5.701683481
  H   -1.898880458  -6.768719618  -6.735309745
  H   -2.218877785  -7.792172422  -5.327605083
  H   -3.338052293  -6.472197520  -5.745597988
  H   -2.497231437  -6.337946463  -3.002004919
  P    1.912336371  -4.414580749   2.253331075
  O    1.896667492  -5.892930604   1.526649772
  C    2.896018028  -6.838036474   1.991535876
  H    3.517796096  -6.435052537   2.817021909
  H    2.296441542  -7.687777677   2.387398634
  C    3.760676217  -7.294014328   0.810537925
  H    4.759248404  -7.641659518   1.174303031
  O    3.191864557  -8.513977941   0.249701989
  C    2.532425946  -8.257747971  -0.998968822
  H    2.861303726  -9.083775657  -1.675129819
  C    3.886461779  -6.300196744  -0.373657071
  H    3.690232043  -5.235248811  -0.098357092
  C    2.924266184  -6.843832385  -1.444518350
  H    2.040543404  -6.169708147  -1.552317821
  H    3.384680806  -6.841842918  -2.452305603
  O    5.227862821  -6.238054840  -0.826284095
  O    2.146694419  -4.310662851   3.686432357
  O    2.996802238  -3.657455307   1.259899446
  N    1.049658961  -8.418784762  -0.752584110
  C    0.084317962  -7.968657143  -1.770652012
  N   -1.265503825  -8.068600059  -1.469008949
  C   -1.672346228  -8.663305111  -0.308472150
  C   -0.737868314  -9.156715804   0.662576352
  C    0.605634398  -9.022970917   0.411756335
  O    0.534375124  -7.488945803  -2.794733800
  N   -3.032457540  -8.701778932  -0.078275112
  H   -3.405346192  -9.267765736   0.670930199
  H   -3.673318059  -8.491058581  -0.832389721
  H    1.668308446  -3.121097045  -6.964717303
  H    1.372358828  -9.391640860   1.116711612
  H   -1.083843787  -9.634407484   1.576841976
  H    5.553286847  -7.102076153  -1.163683767
  H   -1.965603705  -2.738048267  -4.901600980
  H   -3.711079767  -3.185447677  -0.813136843
  H    3.693003361  -3.079882738   1.666038873
  H    1.549395040  -7.451651516  -8.201119059
  H   -3.989470069   5.515133802  -4.091252136

