%mem=64gb
%nproc=28       
%Chk=snap_183.chk
# opt b3lyp/6-31g(d,p)  scf=(xqc, tight)  pop=min    

tetra snap_183 

2     1 
  O    0.294061717  -1.693149396  -6.102960791
  C    0.474820656  -2.781700032  -7.003929975
  H    0.516635865  -3.736222870  -6.438954523
  H    1.473066614  -2.588087297  -7.450169436
  C   -0.624507138  -2.760332348  -8.073508906
  H   -0.743725308  -1.751127898  -8.528756897
  O   -0.161655968  -3.598180143  -9.185398174
  C   -1.026902361  -4.707523370  -9.381757549
  H   -1.045259676  -4.906682258 -10.480629177
  C   -1.984057653  -3.353607985  -7.622222033
  H   -1.933498519  -3.820476375  -6.610053805
  C   -2.356442899  -4.372909244  -8.707371174
  H   -3.068027930  -3.910932432  -9.434073366
  H   -2.909465625  -5.249754622  -8.316372666
  O   -2.970089241  -2.287662063  -7.686226560
  N   -0.324372205  -5.874669773  -8.707973227
  C   -0.858576695  -7.124864414  -8.337216609
  C    0.188108120  -7.828357339  -7.669922191
  N    1.325944538  -7.008993364  -7.644032455
  C    1.010452510  -5.836477418  -8.243542749
  N   -2.135097249  -7.587077903  -8.499971575
  C   -2.365875363  -8.834423509  -7.962419498
  N   -1.376793159  -9.585773217  -7.282592710
  C   -0.011420967  -9.136837070  -7.100221856
  N   -3.615830020  -9.377395209  -8.081010558
  H   -4.346314570  -8.870567854  -8.573673916
  H   -3.896794911 -10.171713333  -7.509721826
  O    0.737236133  -9.840014727  -6.463256896
  H    1.675467011  -4.972191759  -8.372946615
  H   -1.648857474 -10.473483249  -6.802551379
  P   -3.436828920  -1.724864498  -6.212049245
  O   -3.679378684  -0.112890827  -6.386768191
  C   -2.529476101   0.744999527  -6.505923406
  H   -3.015979809   1.744181999  -6.559070769
  H   -2.013868629   0.546907106  -7.469218796
  C   -1.560553910   0.644786440  -5.320466317
  H   -0.879431717  -0.254248728  -5.403324316
  O   -0.664845581   1.798948757  -5.445014826
  C   -0.232331306   2.159310437  -4.106704673
  H    0.699159649   1.568954232  -3.882046688
  C   -2.189003842   0.734264774  -3.903454468
  H   -3.293208417   0.870073056  -3.911814780
  C   -1.424605885   1.860574383  -3.188017768
  H   -1.100542677   1.526742234  -2.173834814
  H   -2.067199382   2.744466262  -3.008879123
  O   -1.810614269  -0.443068785  -3.159542736
  O   -2.259104723  -2.032083506  -5.283416281
  O   -4.900894909  -2.367452649  -6.105148218
  N    0.118325337   3.600193247  -4.164308313
  C   -0.057379959   4.496598434  -5.209180375
  C    0.486411859   5.749628664  -4.773328516
  N    0.990868490   5.614440030  -3.471784773
  C    0.779116108   4.350237868  -3.114459311
  N   -0.618498533   4.346303860  -6.475492840
  C   -0.607716312   5.491014196  -7.295442709
  N   -0.123341374   6.667557028  -6.934972428
  C    0.461036172   6.870602753  -5.664317440
  H   -1.050480560   5.388993538  -8.311452269
  N    0.953326727   8.084604054  -5.377492622
  H    0.912766130   8.851251777  -6.050750272
  H    1.386435459   8.277801418  -4.473050849
  H    1.049122580   3.882504255  -2.170000880
  P   -2.809828800  -1.751815434  -3.163049994
  O   -1.653721372  -2.894450121  -3.181563133
  C   -2.095128685  -4.267297190  -3.019288951
  H   -3.114265052  -4.451494662  -3.408790370
  H   -1.371876329  -4.821817327  -3.662409870
  C   -1.989421335  -4.634935996  -1.534616426
  H   -2.310065512  -3.792818953  -0.863470234
  O   -2.970799181  -5.686966459  -1.310883547
  C   -2.348937993  -6.892573423  -0.853326595
  H   -3.014444429  -7.253875021  -0.030572455
  C   -0.614229933  -5.193587367  -1.085614844
  H    0.125097668  -5.288371468  -1.915421536
  C   -0.923414528  -6.546853504  -0.419909467
  H   -0.175526344  -7.319223234  -0.695026887
  H   -0.871827595  -6.477785246   0.689196036
  O   -0.163700950  -4.202344307  -0.143252023
  O   -4.072504743  -1.624018298  -3.985416172
  O   -3.237040740  -1.854261787  -1.586748532
  N   -2.409293162  -7.896385851  -1.977361112
  C   -1.635556223  -7.733969942  -3.158849902
  N   -1.889905071  -8.662108086  -4.199192996
  C   -2.858157096  -9.721856585  -4.159010475
  C   -3.567802255  -9.841034481  -2.882270525
  C   -3.351357478  -8.949652486  -1.880896234
  O   -0.798044202  -6.860924807  -3.321546261
  H   -1.310507238  -8.573761468  -5.038289612
  O   -2.995277731 -10.372194878  -5.182249281
  C   -4.499510058 -10.993178649  -2.744124428
  H   -3.954008904 -11.913272850  -2.468175757
  H   -5.275882854 -10.836869856  -1.981850787
  H   -5.021504117 -11.216790598  -3.690230652
  H   -3.896803923  -9.013465903  -0.926806522
  P    1.335425085  -4.390127005   0.526404263
  O    1.777092052  -2.811982302   0.512379023
  C    2.996330927  -2.444296388  -0.168357960
  H    3.303050268  -1.549691495   0.421704499
  H    3.782825123  -3.225421800  -0.076997441
  C    2.770092371  -2.077304115  -1.639277563
  H    3.278850174  -1.109391422  -1.882757839
  O    3.498453041  -3.080934049  -2.414415894
  C    2.772109842  -3.440334544  -3.603231402
  H    3.373503539  -3.062350072  -4.468243377
  C    1.323518273  -2.056993241  -2.172209815
  H    0.559514238  -2.432979399  -1.453829782
  C    1.368287685  -2.842803733  -3.489141690
  H    0.563171200  -3.594850603  -3.555079463
  H    1.181273222  -2.156672904  -4.354144545
  O    1.015363694  -0.673655080  -2.434582028
  O    2.200858226  -5.403792337  -0.085984112
  O    0.946440974  -4.587919231   2.091527581
  N    2.754574908  -4.942312589  -3.681224379
  C    2.416045439  -5.540643308  -4.961155470
  N    2.399324984  -6.916318321  -5.076102390
  C    2.675284552  -7.705714868  -3.983918175
  C    3.072955184  -7.121056177  -2.734727768
  C    3.121728992  -5.756015728  -2.612419444
  O    2.144024312  -4.803344478  -5.907937144
  N    2.531296285  -9.053691071  -4.155964404
  H    2.804659692  -9.711455354  -3.442462018
  H    2.239853998  -9.436197000  -5.054629871
  H   -0.502070265  -1.858197432  -5.501719739
  H    3.449833910  -5.253151074  -1.680153874
  H    3.334525119  -7.745731283  -1.880524729
  H    0.068728689  -0.638005574  -2.723023189
  H   -5.396658047  -2.208107619  -5.209039995
  H   -4.155919891  -1.590642054  -1.316378857
  H    0.578886442  -3.800572450   2.587867024
  H    2.128197364  -7.184351285  -6.988840668
  H   -0.934517680   3.411132754  -6.773579720

