%mem=64gb
%nproc=28       
%Chk=snap_177.chk
# opt b3lyp/6-31g(d,p)  scf=(xqc, tight)  pop=min    

tetra snap_177 

2     1 
  O    0.730154186  -1.655095584  -6.056501672
  C    0.726421882  -2.760113467  -6.954169631
  H    0.745322133  -3.709427433  -6.377330443
  H    1.686615579  -2.647385704  -7.502402374
  C   -0.465448910  -2.660652519  -7.916080978
  H   -0.575458877  -1.635044528  -8.334951943
  O   -0.122167562  -3.489995545  -9.078775740
  C   -1.063658203  -4.536578411  -9.257479596
  H   -1.161576369  -4.694187374 -10.358865262
  C   -1.814284959  -3.209088786  -7.378620862
  H   -1.702468043  -3.726562586  -6.396799182
  C   -2.323610180  -4.152032262  -8.479081022
  H   -3.050400493  -3.614045576  -9.134863492
  H   -2.906171182  -5.011649505  -8.093520761
  O   -2.762958255  -2.108598304  -7.305743985
  N   -0.411466337  -5.775693792  -8.666453960
  C   -1.023824143  -7.016196772  -8.395719961
  C   -0.071423712  -7.781808878  -7.660541306
  N    1.095249794  -7.021129778  -7.515676624
  C    0.885358143  -5.819990615  -8.103942587
  N   -2.277027411  -7.441779981  -8.735295937
  C   -2.595299606  -8.706544337  -8.283965581
  N   -1.730156596  -9.494664029  -7.490646741
  C   -0.391902142  -9.082547761  -7.131410820
  N   -3.830360097  -9.200052652  -8.605084070
  H   -4.436302160  -8.673984727  -9.231824162
  H   -4.120285648 -10.139628959  -8.364075397
  O    0.263861514  -9.802502214  -6.411355078
  H    1.609986955  -4.999488057  -8.173108485
  H   -2.080799029 -10.349936419  -6.990160545
  P   -3.006294880  -1.541986503  -5.778027917
  O   -3.229139183   0.074273526  -5.908530865
  C   -2.097941387   0.926922385  -6.163697877
  H   -2.567774340   1.932021244  -6.069624429
  H   -1.764198090   0.781262350  -7.211706520
  C   -0.941161016   0.744129221  -5.170629230
  H   -0.280690282  -0.132499206  -5.449510625
  O   -0.042789865   1.882182517  -5.341757234
  C    0.248964938   2.518197975  -4.088383451
  H    1.367494024   2.485183695  -3.991308676
  C   -1.337780487   0.695162666  -3.677049971
  H   -2.438953567   0.795815683  -3.508176152
  C   -0.533150243   1.808174870  -2.985890237
  H    0.151106955   1.355591257  -2.222417671
  H   -1.197079037   2.473279125  -2.399796539
  O   -0.812289372  -0.540020175  -3.142720940
  O   -1.727902771  -1.916862130  -5.030515113
  O   -4.456553633  -2.128578064  -5.437914332
  N   -0.161996989   3.950629919  -4.267442896
  C   -0.370006337   4.608796611  -5.474181894
  C   -0.623038773   5.983802391  -5.160054785
  N   -0.560575572   6.164083039  -3.771400116
  C   -0.283457834   4.970520487  -3.248330034
  N   -0.362022969   4.153681805  -6.792146637
  C   -0.606448308   5.123455693  -7.782688277
  N   -0.846174872   6.401104078  -7.539655073
  C   -0.855729597   6.915153064  -6.223346307
  H   -0.603826953   4.776327129  -8.840062276
  N   -1.070369041   8.227936747  -6.053315048
  H   -1.224674688   8.852821913  -6.846140360
  H   -1.081795198   8.643181967  -5.120002066
  H   -0.142784240   4.746237139  -2.193693356
  P   -1.939246563  -1.719079790  -2.851723721
  O   -1.115664048  -3.126119905  -3.067736062
  C   -1.944057323  -4.317168199  -3.072210200
  H   -2.903503455  -4.177959705  -3.604495964
  H   -1.323449562  -5.043338241  -3.645047120
  C   -2.146776460  -4.746309815  -1.612587305
  H   -2.619920255  -3.955476633  -0.977253494
  O   -3.112314786  -5.824991311  -1.609705979
  C   -2.592734753  -6.984879708  -0.928830850
  H   -3.403190709  -7.275037255  -0.213908387
  C   -0.850496955  -5.280776848  -0.955413253
  H   -0.019373646  -5.437166708  -1.688672474
  C   -1.274107057  -6.584658161  -0.259333107
  H   -0.486065748  -7.365361255  -0.334333308
  H   -1.426524576  -6.431400757   0.831323118
  O   -0.495109848  -4.239384129  -0.013774962
  O   -3.299709095  -1.455193984  -3.440824696
  O   -1.940225115  -1.676318455  -1.220982929
  N   -2.469252266  -8.064378632  -1.961758817
  C   -1.431804152  -8.039908097  -2.939016363
  N   -1.497649089  -9.029483695  -3.950384737
  C   -2.591376988  -9.939044498  -4.136614805
  C   -3.609525778  -9.898552035  -3.078896885
  C   -3.535445547  -8.991684531  -2.073726167
  O   -0.521323268  -7.228052832  -2.928984441
  H   -0.663758531  -9.105853714  -4.558576005
  O   -2.603713506 -10.616244622  -5.149184026
  C   -4.701843419 -10.905815933  -3.166784956
  H   -5.699726581 -10.458302870  -3.050402915
  H   -4.700876864 -11.431853478  -4.137836953
  H   -4.593211814 -11.687391559  -2.395784145
  H   -4.302144716  -8.938278683  -1.286240470
  P    1.037370586  -4.350270585   0.609376706
  O    1.483596862  -2.808467954   0.256653975
  C    2.895928130  -2.593255791  -0.018707890
  H    3.113039397  -1.676118765   0.573486432
  H    3.537503094  -3.427745240   0.338097880
  C    3.115699365  -2.349266399  -1.514020390
  H    3.923401673  -1.591198358  -1.680460317
  O    3.642879572  -3.588510050  -2.078952477
  C    3.060018974  -3.835469780  -3.374229716
  H    3.863739200  -3.630684636  -4.125320939
  C    1.850427530  -1.984637123  -2.316288545
  H    0.930294107  -2.012543624  -1.695254333
  C    1.820580283  -2.949072580  -3.504228414
  H    0.879395877  -3.534699364  -3.538297614
  H    1.849238761  -2.392123921  -4.472723861
  O    2.030431951  -0.627668021  -2.763933580
  O    1.872619330  -5.465922445   0.158970150
  O    0.715657226  -4.268258151   2.198117762
  N    2.725989953  -5.299473297  -3.448883133
  C    2.307477305  -5.818038627  -4.739609238
  N    2.129274031  -7.179323054  -4.891018535
  C    2.283956322  -8.018810275  -3.814269119
  C    2.678962556  -7.511646415  -2.530280346
  C    2.901216625  -6.166787690  -2.373503702
  O    2.125027440  -5.033295599  -5.669930075
  N    2.005559943  -9.342885564  -4.036786823
  H    2.233566515 -10.048660695  -3.352603612
  H    1.783676713  -9.670291017  -4.977058637
  H   -0.002099917  -1.759886832  -5.367457185
  H    3.222860416  -5.720566174  -1.408530686
  H    2.790982996  -8.180624600  -1.677782893
  H    1.273344327  -0.414866912  -3.356680544
  H   -4.805539104  -1.934577425  -4.476208994
  H   -1.248993714  -2.214759437  -0.724865016
  H    0.222027192  -3.474755241   2.548560251
  H    1.852192030  -7.271239993  -6.832037808
  H   -0.128108741   3.166847805  -6.983062259

