%mem=64gb
%nproc=28       
%Chk=snap_200.chk
# opt b3lyp/6-31g(d,p)  scf=(xqc, tight)  pop=min    

tetra snap_200 

2     1 
  O    0.775545524  -1.708434828  -5.744055249
  C    0.925985988  -2.625687183  -6.816458418
  H    1.231393447  -3.620297045  -6.417742972
  H    1.775427312  -2.207562368  -7.398824593
  C   -0.338081225  -2.705913227  -7.687633671
  H   -0.568353352  -1.728334876  -8.169502576
  O   -0.006976243  -3.588513358  -8.804520131
  C   -0.943462899  -4.663987751  -8.917141865
  H   -1.122364058  -4.803770371 -10.011119495
  C   -1.605296351  -3.303236988  -7.021353993
  H   -1.403680376  -3.772488078  -6.031767931
  C   -2.156447069  -4.300335815  -8.049230304
  H   -2.958512633  -3.815705029  -8.654529583
  H   -2.652543214  -5.177058037  -7.591920388
  O   -2.591674079  -2.241183806  -6.934294302
  N   -0.262961970  -5.883851405  -8.374785608
  C   -0.708093407  -7.210620040  -8.477388458
  C    0.080087045  -7.964954178  -7.552418706
  N    1.007615775  -7.119981101  -6.930222092
  C    0.795120275  -5.893843873  -7.415898896
  N   -1.720303437  -7.721109327  -9.245127837
  C   -1.919161016  -9.069388483  -9.094162103
  N   -1.158110348  -9.893257243  -8.220291378
  C   -0.126429189  -9.369726457  -7.350177795
  N   -2.876651012  -9.663981886  -9.884844239
  H   -3.468487601  -9.067764419 -10.460846799
  H   -3.237573677 -10.585379108  -9.685252517
  O    0.395490362 -10.119001005  -6.546200449
  H    1.356820416  -4.993869749  -7.142188220
  H   -1.370226158 -10.895506775  -8.133929457
  P   -2.801354885  -1.576600273  -5.450204627
  O   -2.848078557   0.038728543  -5.747248038
  C   -1.654252468   0.677221969  -6.237033304
  H   -2.053291864   1.665877231  -6.553117482
  H   -1.257248888   0.153196126  -7.129192159
  C   -0.588068664   0.832738618  -5.141505019
  H    0.218782654   0.046519878  -5.202443319
  O    0.146469782   2.067907762  -5.427976711
  C    0.050189954   2.991529288  -4.339490273
  H    1.073434038   3.435685377  -4.236308063
  C   -1.155493529   0.980179638  -3.709118645
  H   -2.274536782   1.059853294  -3.703321715
  C   -0.479799990   2.234539804  -3.128129791
  H    0.358840816   1.923275887  -2.454971719
  H   -1.158822047   2.806377546  -2.471680912
  O   -0.678880831  -0.132015842  -2.927588385
  O   -1.618697378  -2.025026441  -4.590212622
  O   -4.317112811  -1.986811502  -5.129516804
  N   -0.886370094   4.064751265  -4.823905403
  C   -0.957493489   4.508719198  -6.141174836
  C   -1.914946965   5.571705142  -6.173342316
  N   -2.435480948   5.767610537  -4.886659907
  C   -1.830092308   4.880398117  -4.096224724
  N   -0.290159330   4.090206402  -7.291595403
  C   -0.596396787   4.793035995  -8.471604250
  N   -1.463736205   5.789042052  -8.547731805
  C   -2.171662940   6.243324407  -7.412399911
  H   -0.064363758   4.480021556  -9.397971570
  N   -3.028521306   7.264115576  -7.559504045
  H   -3.172288586   7.714860652  -8.463836772
  H   -3.556750838   7.627448602  -6.763865819
  H   -1.991557650   4.760357986  -3.028396241
  P   -1.852309068  -1.227170861  -2.503752014
  O   -0.924824571  -2.550163855  -2.297642864
  C   -1.486316080  -3.843970722  -2.637541498
  H   -2.418633857  -3.789961535  -3.231198117
  H   -0.694400741  -4.308822580  -3.269336560
  C   -1.731830616  -4.562952943  -1.305899064
  H   -1.981572114  -3.856446305  -0.475133297
  O   -2.933340263  -5.358710716  -1.476878340
  C   -2.640328144  -6.760336652  -1.431899513
  H   -3.469774337  -7.193348752  -0.817940604
  C   -0.601479903  -5.534307592  -0.883334384
  H    0.284405634  -5.503567668  -1.555932616
  C   -1.245156181  -6.929087105  -0.824332126
  H   -0.625807594  -7.687547668  -1.342878972
  H   -1.323385033  -7.282566661   0.227086482
  O   -0.265970317  -5.084564333   0.447053493
  O   -3.169962787  -1.090629632  -3.208189435
  O   -1.981365389  -0.814742475  -0.926524256
  N   -2.762527251  -7.292736331  -2.833123749
  C   -1.765185867  -7.052446799  -3.818938088
  N   -2.043586250  -7.519511593  -5.119950143
  C   -3.248170584  -8.207910335  -5.514771746
  C   -4.239823352  -8.362679424  -4.443257658
  C   -3.989460857  -7.906861982  -3.191885061
  O   -0.707719251  -6.481762392  -3.580299782
  H   -1.299787163  -7.418066665  -5.825339559
  O   -3.311059743  -8.572331929  -6.669305728
  C   -5.509450206  -9.052050672  -4.800985540
  H   -5.561757989  -9.288037375  -5.878293325
  H   -5.619768688 -10.009407872  -4.266731020
  H   -6.396080493  -8.440486851  -4.573049274
  H   -4.729768723  -8.004077450  -2.383737359
  P    1.243886188  -5.441307956   0.999766470
  O    1.747232405  -3.896070629   1.227650374
  C    3.105911900  -3.555120440   0.880960754
  H    3.340545129  -2.782821371   1.651926379
  H    3.807341183  -4.408774594   0.997408146
  C    3.202112322  -2.960164255  -0.525762506
  H    3.911305397  -2.090147498  -0.535417513
  O    3.862001674  -3.967897424  -1.363121905
  C    3.264238286  -4.032695446  -2.655905570
  H    4.063975487  -3.754109132  -3.387734829
  C    1.888474791  -2.576639908  -1.239453911
  H    0.971132291  -2.920508728  -0.712885642
  C    2.023235166  -3.140376718  -2.663706613
  H    1.101512629  -3.656841851  -2.997170963
  H    2.138714720  -2.318370413  -3.407352933
  O    1.869150331  -1.141373056  -1.258780836
  O    2.064562789  -6.332370405   0.166186983
  O    0.913881300  -5.939267236   2.504220509
  N    2.923574410  -5.495062115  -2.913096187
  C    2.363622201  -5.783140250  -4.201922382
  N    2.169580594  -7.144985133  -4.525323882
  C    2.391413826  -8.172556993  -3.609967681
  C    2.946863224  -7.827575450  -2.341205116
  C    3.225675446  -6.519905872  -2.018457126
  O    2.091020014  -4.897845323  -4.991088082
  N    2.060465337  -9.433325094  -3.996698512
  H    2.266977520 -10.238255931  -3.415778515
  H    1.650519626  -9.632249418  -4.923025930
  H    0.096084025  -2.017815146  -5.070335948
  H    3.698998403  -6.219915391  -1.056906128
  H    3.137501988  -8.604411837  -1.593671011
  H    1.066140080  -0.843212809  -1.741603803
  H   -4.680869143  -1.680367083  -4.207270802
  H   -1.176535840  -0.934880289  -0.352777470
  H    0.417490627  -5.315930966   3.112650146
  H    1.747308642  -7.348707749  -5.562069261
  H    0.360261631   3.291515055  -7.240274373

