%mem=64gb
%nproc=28       
%Chk=snap_149.chk
# opt b3lyp/6-31g(d,p)  scf=(xqc, tight)  pop=min    

tetra snap_149 

2     1 
  O    1.050366779  -3.474523639  -4.786519152
  C    1.657418704  -3.572420117  -6.067023718
  H    1.963624970  -4.646649667  -6.125719695
  H    2.573812086  -2.954770238  -6.105429149
  C    0.668787261  -3.185419065  -7.180044425
  H    0.796958377  -2.129707923  -7.512371492
  O    1.022892642  -3.971824195  -8.366131213
  C   -0.094339826  -4.704128710  -8.857194445
  H   -0.062133928  -4.633895235  -9.971663795
  C   -0.819443322  -3.498305843  -6.878544423
  H   -0.952051498  -4.120730627  -5.964622329
  C   -1.345583696  -4.181403706  -8.149089985
  H   -1.894240269  -3.446761843  -8.780321255
  H   -2.099132561  -4.971950599  -7.927259744
  O   -1.531214954  -2.246219072  -6.775270370
  N    0.158143744  -6.147923237  -8.480325231
  C   -0.700865829  -7.235873677  -8.746620924
  C   -0.267988516  -8.306369908  -7.907351472
  N    0.849405345  -7.870788005  -7.185764906
  C    1.081368530  -6.576698863  -7.505831835
  N   -1.731831298  -7.306888456  -9.642792662
  C   -2.419439508  -8.495453990  -9.625207914
  N   -2.111676785  -9.572759816  -8.755320971
  C   -1.028146515  -9.523968291  -7.788462528
  N   -3.481695900  -8.624489055 -10.486087887
  H   -3.678344073  -7.876901721 -11.149414047
  H   -3.971344331  -9.496588976 -10.625145349
  O   -0.894786308 -10.444330882  -7.014286460
  H    1.883445154  -5.935810383  -7.082302035
  H   -2.703352896 -10.415553347  -8.734320498
  P   -1.855641783  -1.714127855  -5.249312197
  O   -2.804274994  -0.430206480  -5.640884441
  C   -2.124544077   0.655792906  -6.307344418
  H   -2.975128578   1.329624058  -6.550239878
  H   -1.669542845   0.308268477  -7.257851828
  C   -1.095890174   1.346897938  -5.398237806
  H   -0.071693143   0.893467251  -5.459361848
  O   -0.916658596   2.701564181  -5.929312127
  C   -1.269781322   3.684400137  -4.955709427
  H   -0.503708731   4.493895791  -5.056132238
  C   -1.540764388   1.507640675  -3.919793540
  H   -2.591935609   1.168875415  -3.750576046
  C   -1.331605594   2.997585468  -3.598950613
  H   -0.356264612   3.107490643  -3.052636835
  H   -2.070518212   3.400684506  -2.885472096
  O   -0.576131297   0.807697520  -3.105943274
  O   -0.557554281  -1.329661079  -4.545048032
  O   -2.740385190  -2.947855435  -4.691049762
  N   -2.597897963   4.239114483  -5.394149738
  C   -2.837944875   4.869440154  -6.612799827
  C   -4.213860677   5.268179145  -6.613494830
  N   -4.819695459   4.852223699  -5.419621150
  C   -3.871068225   4.239036105  -4.711702084
  N   -2.007322220   5.133699597  -7.701542355
  C   -2.597313703   5.830120581  -8.775814729
  N   -3.853708926   6.239374686  -8.805836104
  C   -4.739215864   5.990073092  -7.733576313
  H   -1.946085255   6.050653251  -9.652421425
  N   -5.998778846   6.440624047  -7.830894785
  H   -6.321088995   6.955289705  -8.652277802
  H   -6.672908502   6.288036686  -7.078870518
  H   -3.997010059   3.786479253  -3.731005259
  P   -1.165382196  -0.573343459  -2.442593340
  O    0.133567982  -1.353730544  -1.882051225
  C    0.194719409  -2.796208987  -1.948940434
  H   -0.079851522  -3.178813728  -2.953814507
  H    1.292775111  -2.932917485  -1.778623081
  C   -0.623960854  -3.445313044  -0.831126588
  H   -0.732529814  -2.780926423   0.060895156
  O   -1.982576287  -3.648353116  -1.326809910
  C   -2.345694103  -5.037746482  -1.307778336
  H   -3.401617980  -5.046254210  -0.941459475
  C   -0.100767603  -4.844100072  -0.405082636
  H    0.701509818  -5.238931809  -1.081117354
  C   -1.345968800  -5.751263333  -0.403342988
  H   -1.107525444  -6.787472990  -0.725638388
  H   -1.761807707  -5.874923920   0.623040044
  O    0.449750810  -4.636699159   0.909521471
  O   -2.346803049  -1.242984852  -3.124143145
  O   -1.737046853   0.112276100  -1.062050174
  N   -2.335831448  -5.525384233  -2.731754133
  C   -1.136628320  -5.954268197  -3.373082562
  N   -1.261297559  -6.399225751  -4.711819525
  C   -2.471599542  -6.374945572  -5.474406040
  C   -3.644271918  -5.862991415  -4.755255213
  C   -3.549062933  -5.467532111  -3.461069782
  O   -0.047336704  -5.971639866  -2.828137850
  H   -0.407818430  -6.804434076  -5.125806895
  O   -2.402240831  -6.750998599  -6.630698623
  C   -4.914883137  -5.774663426  -5.525740903
  H   -4.844240941  -6.297079336  -6.495316890
  H   -5.763422456  -6.223729839  -4.988332869
  H   -5.173176896  -4.725795331  -5.748699920
  H   -4.420473449  -5.083270441  -2.911509352
  P    1.191213077  -5.978580725   1.544863078
  O    2.376177108  -6.231530538   0.438102603
  C    3.725596314  -5.791053957   0.744054772
  H    3.753981239  -5.043890724   1.567692468
  H    4.267160986  -6.712834880   1.054906515
  C    4.332100506  -5.212193850  -0.534991737
  H    5.365698102  -4.841971762  -0.308194141
  O    4.564092873  -6.293051403  -1.482972304
  C    3.919860622  -6.043875388  -2.734311580
  H    4.721902235  -6.163133897  -3.506063091
  C    3.496194350  -4.127195252  -1.263572358
  H    2.563266564  -3.853446721  -0.717619286
  C    3.253797350  -4.667407640  -2.679589552
  H    2.174215647  -4.721879821  -2.951509924
  H    3.657232693  -3.985556657  -3.455316136
  O    4.184015349  -2.887108647  -1.271440525
  O    0.318567442  -7.126068761   1.783413938
  O    1.982819299  -5.286136182   2.792484895
  N    2.908890915  -7.139462536  -2.968001469
  C    2.371900290  -7.254499302  -4.309690531
  N    1.489430083  -8.288382207  -4.582320757
  C    1.080772743  -9.142456705  -3.585271804
  C    1.546149221  -8.974218261  -2.239514865
  C    2.450577262  -7.976403235  -1.960529266
  O    2.709386582  -6.448380547  -5.170606742
  N    0.180174835 -10.104880048  -3.959446037
  H   -0.082915179 -10.851310101  -3.332557311
  H   -0.074009320 -10.223764150  -4.940241843
  H    0.800953393  -2.519327510  -4.558365573
  H    2.853216014  -7.804765327  -0.942828780
  H    1.189183760  -9.624614902  -1.441851589
  H    5.029731822  -2.924241619  -1.771068633
  H   -2.897504592  -2.908769925  -3.656615925
  H   -2.228652226  -0.459162061  -0.422459849
  H    1.597947334  -5.377075245   3.710238086
  H    1.300076719  -8.404659696  -6.391907880
  H   -1.046751351   4.773978375  -7.727547166

