%mem=64gb
%nproc=28       
%Chk=snap_124.chk
# opt b3lyp/6-31g(d,p)  scf=(xqc, tight)  pop=min    

tetra snap_124 

2     1 
  O    3.475556199  -3.329395896  -6.382875241
  C    3.261889032  -2.714491934  -7.648111088
  H    3.747609332  -3.283246453  -8.461850488
  H    3.766850483  -1.728644623  -7.541440899
  C    1.762064852  -2.519904650  -7.924585144
  H    1.568458864  -1.576095742  -8.490178802
  O    1.311218312  -3.571351317  -8.842685413
  C    0.177858686  -4.264158424  -8.334764261
  H   -0.597776907  -4.249791458  -9.143114465
  C    0.876756661  -2.623958377  -6.669178280
  H    1.488157273  -2.901878291  -5.766303515
  C   -0.229916260  -3.634720736  -7.001893788
  H   -1.223993664  -3.135913273  -7.099651464
  H   -0.365445504  -4.380925588  -6.191132435
  O    0.317102835  -1.283442758  -6.495524647
  N    0.612040986  -5.701105603  -8.170341815
  C   -0.201100825  -6.778528392  -7.754502342
  C    0.607339847  -7.945327216  -7.830645022
  N    1.879842647  -7.571255406  -8.298112614
  C    1.889164954  -6.219392228  -8.452462891
  N   -1.513944610  -6.744366070  -7.372804341
  C   -2.065824437  -7.986977583  -7.123234176
  N   -1.305287440  -9.182831198  -7.104874262
  C    0.113853740  -9.239551696  -7.427203182
  N   -3.402754221  -8.037709371  -6.862155462
  H   -3.962366190  -7.162103408  -6.889602608
  H   -3.905192051  -8.900427975  -6.708906375
  O    0.683413574 -10.298714890  -7.325248442
  H    2.730645474  -5.599493770  -8.775291756
  H   -1.745481224 -10.078836520  -6.847767782
  P   -0.323965287  -1.120601594  -4.995346604
  O   -0.480146969   0.525209155  -4.896758256
  C   -0.264557192   1.072542941  -3.567138667
  H    0.369317270   1.970945266  -3.769194022
  H    0.306729087   0.371329832  -2.915950765
  C   -1.579899430   1.500429559  -2.913685223
  H   -1.500698380   1.407083952  -1.793780110
  O   -1.665960214   2.941251127  -3.133794452
  C   -2.968255331   3.337755601  -3.566101277
  H   -3.330680776   4.074541698  -2.802716822
  C   -2.916747988   0.883630884  -3.402911385
  H   -2.827881452   0.185346568  -4.267549722
  C   -3.828243972   2.081819594  -3.718437572
  H   -4.677369190   2.089059185  -2.987067190
  H   -4.324657219   1.992947494  -4.701845436
  O   -3.544811634   0.242587748  -2.280980998
  O    0.424255666  -1.744421655  -3.885132465
  O   -1.853872785  -1.520598412  -5.237295007
  N   -2.779505432   4.080415790  -4.849432044
  C   -2.198062094   3.655000686  -6.040233036
  C   -2.198511484   4.782056319  -6.927518651
  N   -2.757326721   5.892737437  -6.277424353
  C   -3.087579012   5.482204231  -5.055752627
  N   -1.698468634   2.423758330  -6.453869492
  C   -1.166446298   2.370293517  -7.752871666
  N   -1.150539602   3.381936511  -8.608524115
  C   -1.656923199   4.648418480  -8.244975493
  H   -0.746490772   1.391331023  -8.075647764
  N   -1.599694733   5.643370894  -9.145739929
  H   -1.201436811   5.502130578 -10.073125102
  H   -1.953062351   6.575004745  -8.922451591
  H   -3.543878957   6.085707577  -4.273586339
  P   -3.281386422  -1.375851270  -2.045259441
  O   -1.814247448  -1.175734572  -1.351191547
  C   -0.937847988  -2.328323183  -1.268551476
  H   -0.688539693  -2.696675109  -2.292313446
  H   -0.020905250  -1.906210516  -0.803437435
  C   -1.610489518  -3.382932379  -0.396883520
  H   -1.617432010  -3.133446648   0.689488417
  O   -3.021804972  -3.321607024  -0.810346017
  C   -3.515943714  -4.644541570  -1.202153215
  H   -4.474327851  -4.724545217  -0.628267776
  C   -1.141394928  -4.831356903  -0.652586767
  H   -0.485157181  -4.910233319  -1.563497394
  C   -2.442182114  -5.645244285  -0.790546710
  H   -2.320927810  -6.495281573  -1.497475043
  H   -2.708810869  -6.126367873   0.177906937
  O   -0.414031330  -5.209897444   0.530336850
  O   -3.341433277  -2.160502142  -3.320060219
  O   -4.508687749  -1.578888184  -1.007294044
  N   -3.821383109  -4.662891617  -2.652949706
  C   -2.803333072  -4.752076111  -3.653643370
  N   -3.268264328  -5.057164707  -4.956083916
  C   -4.653362761  -5.108575158  -5.335506503
  C   -5.584192125  -4.596438705  -4.320577876
  C   -5.162230345  -4.391350117  -3.049403175
  O   -1.606499141  -4.655494932  -3.436839766
  H   -2.559707934  -5.281501974  -5.675007388
  O   -4.902826109  -5.594444264  -6.423636966
  C   -6.974203308  -4.312797912  -4.766986076
  H   -7.721764247  -4.472421960  -3.976583774
  H   -7.075930903  -3.269150027  -5.108776442
  H   -7.270612346  -4.952197577  -5.617558939
  H   -5.834132284  -4.027251472  -2.259830571
  P    0.455669649  -6.614948626   0.377950719
  O    2.017561915  -6.109733156   0.461749377
  C    2.843929241  -6.438755026  -0.681073519
  H    3.797176031  -6.768204674  -0.208066821
  H    2.436931229  -7.272595354  -1.288443870
  C    3.054347101  -5.148029041  -1.482198125
  H    3.354094821  -4.302374037  -0.813579694
  O    4.221797606  -5.378911625  -2.330307423
  C    3.894549283  -5.286893790  -3.715815695
  H    4.730787509  -4.708250386  -4.179057239
  C    1.894770620  -4.727381923  -2.417748949
  H    0.999267105  -5.393920920  -2.362242222
  C    2.496110567  -4.668297696  -3.826726380
  H    1.848358001  -5.179761674  -4.565482734
  H    2.566786476  -3.617056048  -4.193436371
  O    1.431759724  -3.466956964  -1.940254237
  O    0.111273007  -7.422032861  -0.803049291
  O    0.231261039  -7.236326155   1.856579443
  N    3.927025985  -6.697608783  -4.273600324
  C    3.393710641  -6.977540540  -5.590645643
  N    3.249460758  -8.281295735  -6.001560473
  C    3.638181985  -9.314467870  -5.179895821
  C    4.322766539  -9.045344617  -3.939944489
  C    4.442422183  -7.749214502  -3.515724860
  O    3.055275823  -6.031040406  -6.311493959
  N    3.330478211 -10.570672168  -5.606875660
  H    3.586492622 -11.394123439  -5.082737992
  H    2.749869268 -10.706596444  -6.434427004
  H    3.473302559  -4.329749684  -6.454760165
  H    4.941511199  -7.477577245  -2.569072981
  H    4.740004264  -9.862495944  -3.352160562
  H    1.481517750  -2.761430086  -2.641684668
  H   -2.360484812  -2.124297933  -4.487292510
  H   -4.275687140  -1.830192491  -0.056409980
  H    0.655892945  -6.770354738   2.636305600
  H    2.696966594  -8.188636070  -8.214329708
  H   -1.576223685   1.635215183  -5.783568277

