%mem=64gb
%nproc=28       
%Chk=snap_189.chk
# opt b3lyp/6-31g(d,p)  scf=(xqc, tight)  pop=min    

tetra snap_189 

2     1 
  O    2.823103505  -4.164850478  -4.796171448
  C    2.920405703  -3.052028738  -5.689605678
  H    3.895117025  -3.229984470  -6.195881674
  H    2.985351502  -2.125548416  -5.083965924
  C    1.785090770  -2.958823151  -6.714574964
  H    1.739360415  -1.943857368  -7.183589265
  O    2.089453175  -3.822821347  -7.851126408
  C    1.161489153  -4.891995594  -7.956977670
  H    0.920868690  -4.975753051  -9.049510672
  C    0.401163802  -3.394900497  -6.183779492
  H    0.427515515  -3.629449342  -5.087632664
  C   -0.012299814  -4.615520040  -7.019314939
  H   -0.943770018  -4.398044590  -7.588312445
  H   -0.277877238  -5.470840850  -6.357947925
  O   -0.489004340  -2.292219210  -6.483516038
  N    1.909491907  -6.149114880  -7.578398978
  C    2.333824181  -7.134279851  -8.491312507
  C    3.110880169  -8.076802766  -7.754033936
  N    3.165039545  -7.634778650  -6.417965929
  C    2.456011967  -6.485159548  -6.323215986
  N    2.057058757  -7.202991557  -9.829044439
  C    2.607710430  -8.279940021 -10.476106729
  N    3.389370586  -9.263052821  -9.818664308
  C    3.693073760  -9.223219243  -8.397600285
  N    2.376448076  -8.401570453 -11.820503198
  H    1.835310095  -7.685775591 -12.302996823
  H    2.769061248  -9.141081065 -12.383858673
  O    4.368798106 -10.127709666  -7.958344956
  H    2.326735023  -5.844454716  -5.410386527
  H    3.777637104 -10.063693834 -10.338130485
  P   -1.537531206  -1.933651198  -5.260848144
  O   -2.557968825  -0.861107365  -5.971664169
  C   -1.995726457   0.420457169  -6.327063039
  H   -2.853065820   0.915173689  -6.831017896
  H   -1.185837374   0.291240735  -7.075021032
  C   -1.532244867   1.201597193  -5.089000451
  H   -0.490166710   0.939034983  -4.762368721
  O   -1.430016471   2.594988961  -5.494392217
  C   -2.272130589   3.435169029  -4.704346270
  H   -1.615009667   4.291404480  -4.394358888
  C   -2.516087785   1.145652003  -3.890883341
  H   -3.426410197   0.539300600  -4.107948839
  C   -2.834889118   2.612935285  -3.551169832
  H   -2.305061424   2.868110349  -2.594181346
  H   -3.894627097   2.786152196  -3.302112076
  O   -1.791983031   0.649405944  -2.759137302
  O   -0.716298309  -1.438950626  -4.090878359
  O   -2.346036583  -3.321835955  -5.206347272
  N   -3.290540288   4.000260631  -5.647306854
  C   -4.620509637   3.678396752  -5.903552621
  C   -5.064756478   4.567197714  -6.941325076
  N   -4.004130296   5.390390379  -7.348015025
  C   -2.962035792   5.046560108  -6.596814005
  N   -5.501178434   2.753605956  -5.350223339
  C   -6.826547441   2.783895852  -5.817228720
  N   -7.280279143   3.597834861  -6.759152162
  C   -6.427591951   4.534398060  -7.376774082
  H   -7.531737476   2.058313429  -5.347048719
  N   -6.941669439   5.340209333  -8.322024272
  H   -7.923918331   5.288561495  -8.589671375
  H   -6.360663665   6.034501386  -8.791944696
  H   -1.957888369   5.464026746  -6.645847438
  P   -2.084348061  -0.930031784  -2.356063976
  O   -0.729290709  -1.335183494  -1.555304839
  C   -0.283482569  -2.698315841  -1.719944489
  H    0.110743462  -2.840961587  -2.746988892
  H    0.571001672  -2.742512285  -1.008874576
  C   -1.407720005  -3.661017349  -1.319097819
  H   -1.172462353  -4.176401600  -0.356688894
  O   -2.578786763  -2.820695642  -1.072424161
  C   -3.800516596  -3.648427693  -1.216707423
  H   -4.111511400  -3.866204329  -0.164350386
  C   -1.908494268  -4.675561215  -2.379236721
  H   -1.788208664  -4.348233111  -3.441429119
  C   -3.380938361  -4.894335737  -2.000160217
  H   -4.015293378  -5.105221562  -2.892853287
  H   -3.477176419  -5.819195726  -1.385173998
  O   -1.262370075  -5.955822535  -2.166730602
  O   -2.888268357  -1.654308059  -3.431443772
  O   -3.043068391  -0.544317908  -1.062372683
  N   -4.827822402  -2.758299833  -1.824515080
  C   -4.946494011  -2.639003099  -3.245426776
  N   -5.483173833  -1.428164406  -3.763973373
  C   -5.782630024  -0.293680700  -2.962571565
  C   -5.842854244  -0.554573885  -1.523143785
  C   -5.313068556  -1.695014460  -1.008067110
  O   -4.730695937  -3.573547888  -4.009098810
  H   -5.455209876  -1.330361871  -4.789962234
  O   -5.943931647   0.777382726  -3.541899670
  C   -6.464236017   0.494459652  -0.670185317
  H   -6.270243282   1.504022915  -1.066547142
  H   -7.559203306   0.371259590  -0.621318353
  H   -6.091037404   0.483554516   0.364143468
  H   -5.254816783  -1.870341771   0.074466254
  P    0.251705561  -6.056518909  -2.773377432
  O    1.062658284  -5.196581894  -1.614998775
  C    2.480058630  -5.425749668  -1.466891502
  H    2.972936401  -5.737679923  -2.414376642
  H    2.851835750  -4.410776438  -1.196792358
  C    2.688633664  -6.409653999  -0.313132437
  H    1.906554807  -6.256079006   0.471914162
  O    2.441860057  -7.783280478  -0.750331838
  C    3.584941428  -8.627813331  -0.526373847
  H    3.223456406  -9.380654750   0.220272545
  C    4.128471026  -6.366633006   0.266889320
  H    4.747906928  -5.527878408  -0.132969445
  C    4.737398247  -7.745363484  -0.039325029
  H    5.546391752  -7.653575025  -0.794268894
  H    5.243718516  -8.164321257   0.853801036
  O    4.095990900  -6.067589988   1.648379957
  O    0.493309665  -5.406475888  -4.094194966
  O    0.562888849  -7.623047434  -2.636646481
  N    3.896177965  -9.338545694  -1.809385219
  C    3.757260150  -8.696902787  -3.108161585
  N    4.147235720  -9.380055225  -4.239175806
  C    4.669445536 -10.647232613  -4.153491152
  C    4.802775279 -11.300756452  -2.868698939
  C    4.417230275 -10.636923286  -1.740719640
  O    3.265581336  -7.574806043  -3.166972433
  N    5.044062635 -11.240680782  -5.316008209
  H    5.427198264 -12.174128937  -5.344843472
  H    4.926576347 -10.758428706  -6.213720871
  H    1.924340536  -4.219538327  -4.354422209
  H    4.505295634 -11.097522298  -0.744798481
  H    5.204072692 -12.313486639  -2.809650817
  H    3.658671502  -6.766972931   2.183513021
  H   -3.310990661  -3.298887651  -4.815759202
  H   -2.617553980  -0.633750583  -0.164973769
  H    1.540253465  -7.861049824  -2.335533806
  H    3.638515374  -8.154825564  -5.644037865
  H   -5.221943913   2.073187824  -4.608743033

