%mem=64gb
%nproc=28       
%Chk=snap_104.chk
# opt b3lyp/6-31g(d,p)  scf=(xqc, tight)  pop=min    

tetra snap_104 

2     1 
  O    3.530893750  -4.633362005  -6.347997680
  C    3.593008386  -3.208886417  -6.367420224
  H    4.543795339  -3.017238180  -6.912560381
  H    3.690178166  -2.829812749  -5.330356406
  C    2.412979012  -2.538017442  -7.077820357
  H    2.577876014  -1.434068789  -7.174154299
  O    2.370528424  -2.993811777  -8.470179534
  C    1.162080752  -3.688419892  -8.736508839
  H    0.898311153  -3.458340115  -9.797726863
  C    1.014536803  -2.831519365  -6.480151204
  H    1.043670406  -3.583378049  -5.652041123
  C    0.151619548  -3.298984575  -7.662362503
  H   -0.511264665  -2.481681969  -8.016919871
  H   -0.546745972  -4.115273735  -7.376415260
  O    0.529329105  -1.547571122  -6.033836827
  N    1.511171051  -5.163640987  -8.667440928
  C    0.626099498  -6.250821517  -8.514965062
  C    1.428591285  -7.426213586  -8.470643301
  N    2.776865218  -7.031199445  -8.512555872
  C    2.818140241  -5.672854009  -8.613822375
  N   -0.744065494  -6.225314327  -8.454074700
  C   -1.334466226  -7.446401528  -8.311168039
  N   -0.627499706  -8.663919779  -8.383153824
  C    0.830067591  -8.739977491  -8.372522841
  N   -2.696347004  -7.494035798  -8.009142959
  H   -3.154227368  -6.568105946  -7.891659771
  H   -3.281874051  -8.167363973  -8.494024066
  O    1.342309213  -9.827147283  -8.309248234
  H    3.713120967  -5.033669077  -8.628833388
  H   -1.121489495  -9.562637206  -8.311676941
  P   -0.374158554  -1.595791573  -4.647738295
  O   -0.523450667   0.049193908  -4.554055473
  C    0.181267509   0.788333485  -3.534271670
  H    0.920931878   1.409971591  -4.091568632
  H    0.710465367   0.117534660  -2.826130209
  C   -0.837121155   1.672769294  -2.817936152
  H   -0.474685370   1.938719759  -1.792551365
  O   -0.907266794   2.941494964  -3.549465279
  C   -2.238583253   3.476621991  -3.501671833
  H   -2.145421049   4.494635066  -3.045492889
  C   -2.306296995   1.172171500  -2.778887826
  H   -2.574684577   0.555655555  -3.672646670
  C   -3.116029295   2.476422029  -2.737862980
  H   -3.274828840   2.791775449  -1.678780046
  H   -4.138383951   2.366922609  -3.142571450
  O   -2.536627518   0.460481413  -1.562990962
  O    0.297932241  -2.354159267  -3.579263538
  O   -1.792321786  -1.940162315  -5.380194199
  N   -2.694282840   3.660731414  -4.916287220
  C   -2.672207815   2.771946592  -5.987277469
  C   -3.266219927   3.447238172  -7.105336449
  N   -3.643431550   4.743029253  -6.722284207
  C   -3.304775528   4.867021472  -5.441392052
  N   -2.224459922   1.462359188  -6.111310795
  C   -2.341172506   0.868004241  -7.374848607
  N   -2.884961735   1.450031924  -8.436019188
  C   -3.372627721   2.771361775  -8.362851696
  H   -1.963752000  -0.176954796  -7.466898860
  N   -3.913149016   3.309543253  -9.469846201
  H   -3.952641005   2.793574314 -10.347693788
  H   -4.285986385   4.259017044  -9.463500768
  H   -3.449462865   5.747571323  -4.820015413
  P   -2.386494963  -1.192024888  -1.703514950
  O   -1.209576150  -1.348259645  -0.596039748
  C   -0.427750071  -2.577292756  -0.666975509
  H   -0.011238254  -2.720094366  -1.693747064
  H    0.404012205  -2.377925323   0.042459030
  C   -1.358723402  -3.687157340  -0.200531080
  H   -1.627899101  -3.592308487   0.879540951
  O   -2.606920410  -3.392985770  -0.918464784
  C   -3.159696988  -4.597833012  -1.532526197
  H   -4.218857148  -4.600195765  -1.170565486
  C   -0.983013140  -5.141788197  -0.557687050
  H   -0.162672220  -5.229162802  -1.323324170
  C   -2.311719522  -5.763708767  -1.024857178
  H   -2.147125474  -6.571650847  -1.765370297
  H   -2.799679129  -6.272644692  -0.158577246
  O   -0.673218382  -5.846538063   0.659909898
  O   -2.086269003  -1.549601736  -3.133149010
  O   -3.893401074  -1.558071330  -1.215831820
  N   -3.157541092  -4.423132912  -3.009551173
  C   -2.099204373  -4.945693032  -3.822298874
  N   -2.374353384  -5.059167749  -5.201751042
  C   -3.580829172  -4.612198832  -5.836626160
  C   -4.474995494  -3.835398651  -4.956921653
  C   -4.266994688  -3.781900009  -3.618482365
  O   -1.041926059  -5.319251411  -3.347563191
  H   -1.685771452  -5.604643903  -5.761199483
  O   -3.746782851  -4.911539397  -7.000801930
  C   -5.624079649  -3.168772025  -5.626459510
  H   -6.198249840  -3.889758515  -6.238927147
  H   -6.336766252  -2.713186277  -4.925768352
  H   -5.285073886  -2.382171256  -6.318685111
  H   -4.938639042  -3.236972051  -2.936424201
  P    0.890636530  -5.950504388   1.129869761
  O    1.555014417  -6.496564330  -0.271830953
  C    2.989385095  -6.743973398  -0.253855948
  H    3.457214777  -6.517033391   0.724428931
  H    3.082889491  -7.838277406  -0.444131302
  C    3.632627412  -5.939860438  -1.386520170
  H    4.745726959  -5.940379347  -1.277263781
  O    3.431290664  -6.647348746  -2.647524119
  C    2.517227445  -5.931421043  -3.492725687
  H    3.091431654  -5.710553731  -4.434293514
  C    3.055790414  -4.513832748  -1.602241999
  H    2.653922077  -4.037868588  -0.678090217
  C    2.028152531  -4.701497089  -2.724550454
  H    0.997297298  -4.861039252  -2.317713857
  H    1.915478987  -3.791971621  -3.350381852
  O    4.087936462  -3.613123586  -1.977027353
  O    1.163979323  -6.623502269   2.388402747
  O    1.360314040  -4.356043698   1.046116322
  N    1.406054716  -6.869864156  -3.855106013
  C    0.702838180  -6.633591881  -5.106632511
  N   -0.339469178  -7.460978292  -5.457749292
  C   -0.781097377  -8.412536805  -4.570588174
  C   -0.132049827  -8.626353552  -3.310607596
  C    0.947348349  -7.842396822  -2.978317279
  O    1.077115759  -5.692041025  -5.808785257
  N   -1.914791416  -9.088687381  -4.951112892
  H   -2.237417223  -9.903027661  -4.450275626
  H   -2.284254745  -8.937594330  -5.880827465
  H    2.695954040  -4.965717227  -5.893505860
  H    1.485888580  -7.950682367  -2.020086859
  H   -0.478121002  -9.400405051  -2.628177566
  H    4.534582514  -3.885676466  -2.808464731
  H   -2.555798876  -2.204203323  -4.745762138
  H   -4.013959744  -1.897685786  -0.275722733
  H    1.707354526  -3.938636769   1.880398697
  H    3.562461259  -7.673925503  -8.455938532
  H   -1.709541963   0.983878123  -5.329468976

