%mem=64gb
%nproc=28       
%Chk=snap_159.chk
# opt b3lyp/6-31g(d,p)  scf=(xqc, tight)  pop=min    

tetra snap_159 

2     1 
  O    3.017242031  -3.876994038  -4.660279671
  C    3.294490818  -2.588624370  -5.221266766
  H    4.315274263  -2.706906005  -5.648916133
  H    3.318037691  -1.848058634  -4.396776637
  C    2.296312451  -2.175789597  -6.305702567
  H    2.371923477  -1.081036686  -6.525263950
  O    2.707860977  -2.797450948  -7.565940252
  C    1.687109392  -3.623031488  -8.096872046
  H    1.686131391  -3.436568949  -9.201252890
  C    0.823980127  -2.591515767  -6.059415372
  H    0.706696895  -3.222605399  -5.137519807
  C    0.388877250  -3.326708813  -7.338895248
  H   -0.277749752  -2.665438426  -7.937406008
  H   -0.219136625  -4.223743805  -7.117966209
  O    0.072092608  -1.364554565  -5.995843321
  N    2.108481550  -5.056259305  -7.881836661
  C    2.061518160  -6.079249812  -8.846249245
  C    2.425764200  -7.286663273  -8.179188750
  N    2.726288426  -6.963642136  -6.840369630
  C    2.532843701  -5.637678902  -6.670952440
  N    1.740640560  -5.963074224 -10.172491733
  C    1.817456430  -7.133917871 -10.883950668
  N    2.130022737  -8.381747710 -10.291784577
  C    2.429542344  -8.546536451  -8.873748139
  N    1.542123436  -7.085645624 -12.226816017
  H    1.353218997  -6.187742703 -12.668865823
  H    1.649698221  -7.883307662 -12.836590856
  O    2.614114411  -9.677376123  -8.488431818
  H    2.714635123  -5.000110475  -5.716826623
  H    2.148998976  -9.244240904 -10.856452099
  P   -0.852393518  -1.186597950  -4.625567776
  O   -1.312888724   0.371981128  -5.000684028
  C   -0.579146178   1.455298923  -4.393989497
  H   -0.117018720   2.001613745  -5.249824399
  H    0.217373119   1.091522572  -3.710465888
  C   -1.574115916   2.354695555  -3.656346262
  H   -1.101987829   2.825519928  -2.757160993
  O   -1.888011642   3.471010570  -4.551104704
  C   -3.270379640   3.835207655  -4.449840833
  H   -3.282355803   4.925938238  -4.195728447
  C   -2.949391613   1.733089096  -3.300574703
  H   -3.227063457   0.892175777  -3.989735186
  C   -3.929498547   2.905628898  -3.424483174
  H   -4.051231400   3.403799607  -2.432027816
  H   -4.955214339   2.587808009  -3.691242500
  O   -2.908051556   1.324459924  -1.920134890
  O   -0.046051621  -1.433182635  -3.415687729
  O   -2.159637886  -1.975975623  -5.149698717
  N   -3.865034151   3.682861750  -5.814999452
  C   -3.864200256   2.590465763  -6.678793045
  C   -4.597449120   2.987175259  -7.847468734
  N   -5.033421181   4.312637144  -7.703415749
  C   -4.597869807   4.719896074  -6.514054426
  N   -3.335412509   1.307942793  -6.579501545
  C   -3.518575898   0.462946559  -7.682584303
  N   -4.191912849   0.783295845  -8.780424902
  C   -4.772258765   2.059877286  -8.922944845
  H   -3.070038410  -0.554425780  -7.604421082
  N   -5.455493746   2.329171786 -10.049426690
  H   -5.556670604   1.637615166 -10.789638153
  H   -5.892053852   3.239907106 -10.191781390
  H   -4.754884060   5.702234219  -6.074107317
  P   -2.802253803  -0.309500721  -1.749517897
  O   -1.807088811  -0.514585964  -0.491944538
  C   -0.876062784  -1.618661781  -0.554810895
  H   -0.307237477  -1.615590533  -1.521338361
  H   -0.169643769  -1.324253220   0.258478840
  C   -1.495759027  -2.987979685  -0.247892811
  H   -1.118238018  -3.364872323   0.738191197
  O   -2.945745367  -2.924662114  -0.103309879
  C   -3.544011244  -4.191860757  -0.530188088
  H   -3.987602458  -4.629780238   0.397625903
  C   -1.263189747  -4.058538795  -1.348830371
  H   -1.201533067  -3.634303044  -2.380980182
  C   -2.438221509  -5.033714251  -1.163989125
  H   -2.733536291  -5.518376003  -2.118319243
  H   -2.135740341  -5.874960675  -0.500757241
  O   -0.049678930  -4.720773353  -0.941825675
  O   -2.492130204  -0.963573143  -3.067270374
  O   -4.265224660  -0.665845963  -1.145101216
  N   -4.644499417  -3.792387393  -1.450879101
  C   -4.381011624  -3.446234220  -2.807809938
  N   -5.399563988  -2.772580480  -3.499641605
  C   -6.693795279  -2.418878587  -2.950166881
  C   -6.920856809  -2.936543497  -1.585117227
  C   -5.938657372  -3.563265085  -0.897797129
  O   -3.316461898  -3.710494845  -3.361088759
  H   -5.203872400  -2.510932515  -4.476589017
  O   -7.413466780  -1.757753378  -3.656167017
  C   -8.277801069  -2.714984031  -1.019074283
  H   -8.323036064  -1.771819448  -0.447202780
  H   -9.047464649  -2.633073184  -1.808296152
  H   -8.603216400  -3.524057459  -0.348757581
  H   -6.087954349  -3.936378989   0.125340581
  P    0.941667393  -5.237461133  -2.132035833
  O    2.358661563  -4.850674493  -1.411543323
  C    3.533322650  -5.546008605  -1.896407462
  H    3.425885487  -5.939622709  -2.932237313
  H    4.296055868  -4.732867308  -1.912566081
  C    3.894790181  -6.622527325  -0.871925067
  H    3.758562017  -6.258663147   0.180921990
  O    2.949108506  -7.735453965  -0.951487284
  C    3.597535782  -8.969111405  -1.332528423
  H    3.355739366  -9.664362743  -0.488203227
  C    5.306525843  -7.217606312  -1.097128242
  H    5.915578299  -6.663624795  -1.842488779
  C    5.091304602  -8.688827402  -1.502260372
  H    5.442817907  -8.869468939  -2.538141643
  H    5.694942556  -9.362849688  -0.859722797
  O    5.914246579  -7.123287444   0.190975201
  O    0.772192684  -4.626626441  -3.481830156
  O    0.738935418  -6.838860669  -2.118689543
  N    2.916972252  -9.445224316  -2.576245496
  C    3.059755590  -8.761896891  -3.861403648
  N    2.534704762  -9.354625933  -4.993061158
  C    1.890871726 -10.559479329  -4.927006743
  C    1.661928609 -11.203504291  -3.650241422
  C    2.180613617 -10.638020461  -2.522856247
  O    3.631061493  -7.681036916  -3.912572346
  N    1.461102702 -11.101870782  -6.101853338
  H    1.052218065 -12.023389013  -6.146139487
  H    1.727620032 -10.668623893  -6.989578078
  H    2.160933784  -3.848227233  -4.088395884
  H    2.044138630 -11.100406567  -1.533252987
  H    1.084752264 -12.126852722  -3.598333281
  H    6.886400170  -7.255752927   0.150374594
  H   -2.751243567  -2.425553883  -4.410828647
  H   -4.281894950  -1.543893893  -0.623289973
  H    1.554687437  -7.433782815  -1.878811737
  H    3.000474015  -7.659981940  -6.120915384
  H   -2.735142515   1.010969281  -5.767898410

