%mem=64gb
%nproc=28       
%Chk=snap_74.chk
# opt b3lyp/6-31g(d,p)  scf=(xqc, tight)  pop=min    

tetra snap_74 

2     1 
  O    2.707521751  -6.064553735  -6.837130880
  C    2.876439613  -4.735566074  -7.344257655
  H    3.418490561  -4.913405519  -8.303356661
  H    3.538171746  -4.178666999  -6.654059980
  C    1.581671351  -3.963744739  -7.614461687
  H    1.807534150  -2.873464657  -7.767323341
  O    1.072272735  -4.373169217  -8.920121666
  C   -0.220506118  -4.952470547  -8.818453089
  H   -0.804592255  -4.554785237  -9.688243727
  C    0.417266278  -4.118826965  -6.603670107
  H    0.663361277  -4.765820801  -5.723067440
  C   -0.767815898  -4.650486519  -7.424209131
  H   -1.595786968  -3.907351253  -7.482460554
  H   -1.258184605  -5.525980577  -6.935338046
  O    0.248354329  -2.763045054  -6.134775892
  N   -0.046349543  -6.434424710  -9.043837880
  C   -0.671657612  -7.205588635 -10.048610306
  C   -0.183415255  -8.535164963  -9.902857894
  N    0.732959759  -8.542992930  -8.832395892
  C    0.814128976  -7.283974306  -8.334417013
  N   -1.560777666  -6.782743432 -10.996146850
  C   -1.985182036  -7.765389412 -11.861665172
  N   -1.560315090  -9.110219150 -11.779792898
  C   -0.618587402  -9.600201294 -10.774700248
  N   -2.867085741  -7.400524421 -12.845485867
  H   -3.160550345  -6.429255143 -12.923116471
  H   -3.209925546  -8.042792164 -13.544764163
  O   -0.329897366 -10.767771859 -10.794060034
  H    1.519496305  -6.895613975  -7.506754086
  H   -1.911864505  -9.816647574 -12.443739584
  P   -0.850287060  -2.408879170  -4.950944779
  O   -1.666755368  -1.156872121  -5.658291190
  C   -1.279167148   0.174731085  -5.294505946
  H   -1.776771276   0.782256251  -6.080788555
  H   -0.183415550   0.322000680  -5.376854246
  C   -1.775620858   0.513766839  -3.879540464
  H   -1.275129899  -0.125578814  -3.105038641
  O   -1.237135612   1.842283209  -3.563703935
  C   -2.257976571   2.716819452  -3.071285000
  H   -1.827475091   3.188059020  -2.149975991
  C   -3.318338945   0.624962489  -3.731658542
  H   -3.832574655   0.688517002  -4.723440011
  C   -3.520424418   1.895581214  -2.872328094
  H   -3.636934360   1.600826687  -1.799271147
  H   -4.470127033   2.406849172  -3.104979254
  O   -4.027353492  -0.425382572  -3.091171236
  O   -0.113254157  -2.036454827  -3.714248322
  O   -1.836082543  -3.668200379  -5.198580767
  N   -2.395715666   3.783392876  -4.121345280
  C   -1.329009045   4.391441156  -4.776954054
  C   -1.882915093   5.400933365  -5.628435183
  N   -3.279337469   5.399962335  -5.503888085
  C   -3.577248046   4.448067984  -4.619091298
  N    0.046298816   4.173320515  -4.703860203
  C    0.848201272   5.022330148  -5.490245597
  N    0.381686458   5.972981165  -6.283057018
  C   -1.003741052   6.220577861  -6.407660499
  H    1.950786136   4.877242726  -5.427268757
  N   -1.405755809   7.195538402  -7.236705264
  H   -0.737807014   7.756554747  -7.767183637
  H   -2.396554740   7.417749894  -7.348576497
  H   -4.573087312   4.179506139  -4.275943445
  P   -3.306301214  -1.735301324  -2.378266501
  O   -2.511288173  -0.862126303  -1.252431751
  C   -1.288089023  -1.487520412  -0.762134152
  H   -0.601395365  -1.709077250  -1.612223601
  H   -0.838045403  -0.693166327  -0.129032541
  C   -1.715374939  -2.713189169   0.031812103
  H   -2.105879779  -2.454834137   1.043884726
  O   -2.873827077  -3.245968194  -0.705602233
  C   -2.859185299  -4.719553325  -0.677240041
  H   -3.855084790  -4.958748268  -0.226101399
  C   -0.715178847  -3.892474652   0.072277705
  H   -0.079246102  -3.938901398  -0.856383381
  C   -1.655301172  -5.109241089   0.178406662
  H   -1.156048989  -6.048954670  -0.130296802
  H   -1.936227741  -5.276582276   1.242866955
  O    0.073923337  -3.889265587   1.252967664
  O   -2.503696863  -2.523893421  -3.356536498
  O   -4.693613520  -2.431161336  -1.903747307
  N   -2.829630515  -5.226445982  -2.074575245
  C   -1.626890193  -5.671858927  -2.715850987
  N   -1.775041657  -6.250051234  -3.987770198
  C   -2.993289655  -6.299983464  -4.750769405
  C   -4.159551798  -5.733167150  -4.048816493
  C   -4.054579205  -5.235425783  -2.792681348
  O   -0.525892171  -5.590345795  -2.189209563
  H   -0.913319810  -6.668459036  -4.408665656
  O   -2.924688424  -6.754218757  -5.871750766
  C   -5.455382627  -5.747469461  -4.782068879
  H   -5.355058097  -6.200042707  -5.784941730
  H   -6.221134978  -6.335545845  -4.251198509
  H   -5.859034851  -4.734920701  -4.929362129
  H   -4.919766022  -4.797421395  -2.267526120
  P    1.396534074  -2.879213678   1.342967627
  O    2.685049368  -3.830779666   0.985084553
  C    2.617993730  -4.901969786   0.032935611
  H    3.352253755  -5.632606920   0.450255665
  H    1.629790383  -5.391339166  -0.006680887
  C    3.119401555  -4.354131028  -1.309580916
  H    3.915312488  -3.580029470  -1.151395479
  O    3.813987932  -5.441199710  -1.992020948
  C    3.238692690  -5.709695771  -3.275821946
  H    4.112520389  -5.890670096  -3.948480750
  C    2.029306638  -3.852559328  -2.280788630
  H    0.976039471  -4.071755360  -1.951746897
  C    2.356616865  -4.510430795  -3.627765343
  H    1.427340898  -4.778297550  -4.178824853
  H    2.904690070  -3.791767641  -4.271145961
  O    2.203312478  -2.427223783  -2.337034497
  O    1.514036117  -2.162562584   2.598060407
  O    1.135917476  -1.991666382  -0.011278113
  N    2.484668384  -7.016262304  -3.130096135
  C    1.374694740  -7.393395127  -3.985296266
  N    0.703520836  -8.564843289  -3.762828145
  C    1.065894220  -9.381174716  -2.719126213
  C    2.174601804  -9.041290572  -1.864178130
  C    2.851506989  -7.873826022  -2.089958059
  O    1.057398327  -6.631125088  -4.915155969
  N    0.325048261 -10.512925044  -2.537519234
  H    0.548683739 -11.189241019  -1.824046036
  H   -0.434573099 -10.740671799  -3.169009104
  H    2.310742381  -6.071265848  -5.909699985
  H    3.711743555  -7.564885351  -1.468387838
  H    2.471111241  -9.706142166  -1.053859307
  H    1.485732695  -2.031750501  -2.944279294
  H   -2.602169416  -3.776569772  -4.502578959
  H   -5.289135177  -1.907016296  -1.289175818
  H    1.839396306  -1.952215465  -0.771732077
  H    1.225548579  -9.371979429  -8.516265473
  H    0.413528941   3.396387226  -4.136919031

