%mem=64gb
%nproc=28       
%Chk=snap_26.chk
# opt b3lyp/6-31g(d,p)  scf=(xqc, tight)  pop=min    

tetra snap_26 

2     1 
  O    1.590927375  -4.627407838  -6.945564580
  C    2.120470186  -3.482364097  -7.629694392
  H    2.900984984  -3.922222421  -8.290025179
  H    2.596588835  -2.797932815  -6.898340219
  C    1.054944936  -2.764848320  -8.465863272
  H    1.291205054  -1.676313677  -8.578746539
  O    1.152615447  -3.252466635  -9.841435217
  C   -0.042550810  -3.891470332 -10.251667872
  H   -0.187592529  -3.610978833 -11.327725236
  C   -0.409711117  -3.010169084  -8.018510603
  H   -0.500939021  -3.749464928  -7.185354623
  C   -1.148448567  -3.498638287  -9.272868149
  H   -1.778320785  -2.674855824  -9.680824574
  H   -1.862225652  -4.315600962  -9.038926274
  O   -1.029683368  -1.766802800  -7.637284377
  N    0.224593807  -5.380255419 -10.218669404
  C    0.497961403  -6.176899175 -11.354763619
  C    0.796773155  -7.484458220 -10.876541645
  N    0.729068068  -7.454908642  -9.471046234
  C    0.397637820  -6.193926497  -9.087294540
  N    0.473059924  -5.791178964 -12.662280309
  C    0.786247904  -6.788226966 -13.562145048
  N    1.075080540  -8.115410184 -13.176028990
  C    1.104428218  -8.566512620 -11.784555817
  N    0.807868423  -6.447182902 -14.887442342
  H    0.620316409  -5.483299317 -15.161352490
  H    1.039959393  -7.098461939 -15.624001290
  O    1.364868080  -9.719977407 -11.571114678
  H    0.270629298  -5.833342511  -8.041730162
  H    1.285272605  -8.836650047 -13.883993599
  P   -0.638282730  -1.282246896  -6.104655259
  O   -1.907738239  -0.255537699  -5.864719655
  C   -1.570457936   1.107814968  -5.532201337
  H   -2.111842782   1.713887724  -6.286370424
  H   -0.481540016   1.325020499  -5.600318373
  C   -2.119047068   1.330476581  -4.114281638
  H   -1.348649386   1.208609015  -3.314269371
  O   -2.492115099   2.739283804  -3.994834803
  C   -3.913078171   2.898049596  -3.984666568
  H   -4.117945041   3.650624617  -3.179868958
  C   -3.404118843   0.505689716  -3.840988110
  H   -3.580101149  -0.310635983  -4.589003561
  C   -4.554563819   1.528763142  -3.792245859
  H   -5.050902700   1.456900761  -2.789313290
  H   -5.346911461   1.279412722  -4.518752621
  O   -3.325691183  -0.004373169  -2.503244702
  O    0.696131790  -0.689933316  -5.950064336
  O   -0.939335306  -2.594980129  -5.230029326
  N   -4.242165159   3.535989645  -5.309348139
  C   -3.423385003   4.445490771  -5.972208264
  C   -4.138773871   4.882624980  -7.133575540
  N   -5.382731334   4.238213297  -7.183409854
  C   -5.440234608   3.449277826  -6.108751291
  N   -2.149042886   4.927268417  -5.674241071
  C   -1.629255371   5.887443387  -6.560180165
  N   -2.257315212   6.330612262  -7.638441002
  C   -3.541936020   5.862871432  -7.990253909
  H   -0.620158909   6.298681631  -6.330060549
  N   -4.117554301   6.363088509  -9.094420068
  H   -3.651627475   7.070936228  -9.663452248
  H   -5.052396669   6.069496667  -9.379891644
  H   -6.275604818   2.814387069  -5.825899959
  P   -2.797330507  -1.556551562  -2.295251716
  O   -1.273070465  -1.125463252  -1.879706179
  C   -0.300958923  -2.149710034  -1.559404080
  H    0.030260259  -2.642624600  -2.498864377
  H    0.541135091  -1.560109631  -1.134716160
  C   -0.919843255  -3.107173608  -0.547219521
  H   -1.208874921  -2.608840212   0.411937800
  O   -2.194654084  -3.486958946  -1.175094464
  C   -2.213624977  -4.923965877  -1.492089240
  H   -3.260712755  -5.220653233  -1.240182842
  C   -0.153969743  -4.421171178  -0.265009591
  H    0.820835271  -4.498747416  -0.805497079
  C   -1.139745653  -5.539124868  -0.620139505
  H   -0.627338664  -6.435666947  -1.063778531
  H   -1.565201774  -5.984620608   0.320507984
  O    0.004834346  -4.428103848   1.171377591
  O   -2.914312108  -2.381460600  -3.545768858
  O   -3.813399355  -1.824181998  -1.066036951
  N   -1.996087040  -5.076039413  -2.957225181
  C   -0.679156161  -5.162697309  -3.510385462
  N   -0.614283541  -5.499431538  -4.885907033
  C   -1.729548684  -5.533211029  -5.780862555
  C   -3.022216331  -5.256077870  -5.158184899
  C   -3.120898025  -5.035939042  -3.819938009
  O    0.345095585  -4.970856649  -2.885930259
  H    0.334166131  -5.640712202  -5.273943905
  O   -1.468881834  -5.750985455  -6.957670101
  C   -4.207905307  -5.190361695  -6.058541590
  H   -4.640509112  -4.177825982  -6.081931826
  H   -3.947951424  -5.455510060  -7.096835401
  H   -5.003334204  -5.885824292  -5.748449409
  H   -4.086411299  -4.812103358  -3.342959494
  P    1.467662049  -4.806033114   1.793616420
  O    2.151046063  -5.688976623   0.593489401
  C    3.551435697  -6.039168953   0.828709674
  H    4.150201814  -5.114032996   0.697045856
  H    3.675683985  -6.458323877   1.851443227
  C    3.937641165  -7.099869885  -0.209589498
  H    5.016922681  -6.992973194  -0.474322683
  O    3.878949078  -8.405897245   0.420526321
  C    2.711844556  -9.132779450  -0.033489005
  H    3.023418953 -10.203409709   0.009953793
  C    3.030334478  -7.181437243  -1.471674554
  H    2.265355190  -6.370747127  -1.519485722
  C    2.421832812  -8.596127109  -1.433178061
  H    1.334415875  -8.582770505  -1.682419797
  H    2.869503530  -9.251232384  -2.203243721
  O    3.789411046  -6.950580214  -2.648367853
  O    1.454759813  -5.290366241   3.176049099
  O    2.271852992  -3.380141318   1.567092469
  N    1.658307996  -8.886989990   1.005694190
  C    0.392050940  -8.188406469   0.751453188
  N   -0.247157557  -7.583148563   1.820480622
  C    0.202158876  -7.755181291   3.096509822
  C    1.355303315  -8.580254198   3.379265183
  C    2.071643795  -9.079820387   2.332493254
  O   -0.041256485  -8.150436383  -0.391263323
  N   -0.517915372  -7.164109672   4.113487026
  H   -0.048109031  -6.979432369   4.992155498
  H   -1.217260347  -6.472760342   3.863035347
  H    1.108264495  -4.361244927  -6.131000850
  H    3.003392440  -9.645389769   2.487679430
  H    1.648718319  -8.775902347   4.408780390
  H    4.494320784  -7.620780712  -2.776900498
  H   -1.761283979  -2.608760174  -4.519721574
  H   -3.656679673  -2.628053429  -0.464417205
  H    2.534331022  -2.856522299   2.364302033
  H    0.901710121  -8.261670049  -8.877307794
  H   -1.644574217   4.558060460  -4.851886095

