%mem=64gb
%nproc=28       
%Chk=snap_84.chk
# opt b3lyp/6-31g(d,p)  scf=(xqc, tight)  pop=min    

tetra snap_84 

2     1 
  O    3.281659557  -5.190670398  -6.958493367
  C    3.312824252  -3.772543248  -7.109737140
  H    4.115956670  -3.631078603  -7.869372587
  H    3.630072856  -3.305393554  -6.155503570
  C    1.993346447  -3.169034657  -7.598009140
  H    2.110336928  -2.072767078  -7.798265897
  O    1.702915402  -3.733275012  -8.921325847
  C    0.427346009  -4.346753014  -8.947055663
  H   -0.014407781  -4.125977137  -9.950101943
  C    0.738548261  -3.420040461  -6.722424564
  H    0.912223132  -4.167198740  -5.901938627
  C   -0.345224918  -3.866556704  -7.717787625
  H   -1.018882157  -3.020958960  -7.982093402
  H   -1.032647076  -4.622663445  -7.281797687
  O    0.438325557  -2.129148659  -6.155326992
  N    0.650515215  -5.848253908  -8.888526660
  C   -0.386734835  -6.795314257  -8.742144012
  C    0.230610513  -8.049057804  -8.472355644
  N    1.622107918  -7.846682027  -8.473977634
  C    1.863664606  -6.525685580  -8.710325528
  N   -1.728041599  -6.566761377  -8.849135697
  C   -2.516201606  -7.664493118  -8.609525796
  N   -1.988280048  -8.922912815  -8.232822650
  C   -0.567455164  -9.202899116  -8.131119476
  N   -3.875304115  -7.562172693  -8.856820141
  H   -4.235170963  -6.614776612  -8.994487965
  H   -4.515437020  -8.151554277  -8.330978724
  O   -0.241500992 -10.316472086  -7.785488978
  H    2.850775293  -6.023177563  -8.743062636
  H   -2.623895418  -9.705219604  -8.021623426
  P   -0.600446971  -2.100061589  -4.860069555
  O   -1.018825334  -0.499124508  -5.043924583
  C   -0.428097021   0.376693699  -4.059561699
  H    0.018508243   1.201301660  -4.654619268
  H    0.391504949  -0.103318836  -3.478335001
  C   -1.526502134   0.900857952  -3.123038516
  H   -1.353698286   0.583912328  -2.059059277
  O   -1.344634700   2.346555862  -3.095833777
  C   -2.618496773   3.017307354  -3.083753987
  H   -2.767000248   3.428312878  -2.051600112
  C   -2.987621146   0.640478446  -3.580109021
  H   -3.058525528   0.147321172  -4.579973956
  C   -3.682179247   2.011056201  -3.530766075
  H   -4.528798611   1.960165939  -2.799258142
  H   -4.170340370   2.271495962  -4.487324454
  O   -3.709054856  -0.152694086  -2.622154942
  O    0.114494525  -2.395477474  -3.592567499
  O   -1.746737786  -3.042761361  -5.517112497
  N   -2.435371809   4.162146870  -4.017258751
  C   -1.817270239   4.161783340  -5.264702267
  C   -1.699301649   5.533048739  -5.665082347
  N   -2.230040658   6.363783622  -4.666391818
  C   -2.648182443   5.560143813  -3.693103362
  N   -1.371061200   3.129966315  -6.089834881
  C   -0.781582955   3.524432991  -7.308987126
  N   -0.644078757   4.775272470  -7.711185888
  C   -1.083235234   5.858382132  -6.915076499
  H   -0.416074305   2.710930002  -7.974436920
  N   -0.890807531   7.105514781  -7.368416555
  H   -0.438533459   7.285702267  -8.265572301
  H   -1.193707693   7.915892988  -6.823529742
  H   -3.116754185   5.863254453  -2.758112654
  P   -3.126926189  -1.672720773  -2.305488835
  O   -2.185635484  -1.216375673  -1.058239388
  C   -1.081482755  -2.107527289  -0.729042260
  H   -0.440992741  -2.266408789  -1.626473242
  H   -0.518566144  -1.523366966   0.035697697
  C   -1.690976503  -3.382180530  -0.163059746
  H   -2.081121989  -3.255270578   0.874032934
  O   -2.885270426  -3.602338457  -0.998805694
  C   -3.039765941  -5.028022657  -1.301562590
  H   -4.072132931  -5.253954793  -0.931155635
  C   -0.853440182  -4.673799137  -0.321973852
  H   -0.138188633  -4.605000945  -1.189742076
  C   -1.926440138  -5.755204537  -0.555428874
  H   -1.517349212  -6.641693447  -1.078220418
  H   -2.273305590  -6.150977648   0.428487522
  O   -0.196382754  -5.046051230   0.878573469
  O   -2.447939321  -2.239250136  -3.514901842
  O   -4.552756407  -2.334880709  -1.898368606
  N   -3.016273902  -5.194418743  -2.782193414
  C   -1.861764748  -5.660370121  -3.493722265
  N   -2.095673287  -6.124032828  -4.810149607
  C   -3.374572275  -6.133363424  -5.450298270
  C   -4.419741680  -5.370608235  -4.749505428
  C   -4.231479599  -4.955979374  -3.474141035
  O   -0.747706761  -5.699111662  -3.004218896
  H   -1.280787894  -6.542620726  -5.308229176
  O   -3.489933127  -6.757634774  -6.487979419
  C   -5.674083174  -5.114495202  -5.507407452
  H   -5.540324217  -4.301043933  -6.238179033
  H   -5.994114460  -6.007240946  -6.071594840
  H   -6.519118348  -4.834617096  -4.861615315
  H   -5.006106835  -4.409483330  -2.909149276
  P    1.188650960  -4.243170653   1.349916178
  O    2.426319637  -5.201181269   0.853034968
  C    2.349830064  -6.017735862  -0.322340767
  H    2.994755032  -6.888448242  -0.045826396
  H    1.333244683  -6.391197226  -0.528546408
  C    2.993127050  -5.242769111  -1.479850147
  H    3.863146726  -4.636517276  -1.117367980
  O    3.589640827  -6.239301416  -2.368036763
  C    3.124874406  -6.088445852  -3.714629030
  H    4.033771430  -6.233383025  -4.350581117
  C    2.044359329  -4.401613958  -2.359043107
  H    0.950297191  -4.597193141  -2.184034825
  C    2.454225093  -4.719234263  -3.801125107
  H    1.574483835  -4.679169498  -4.485594239
  H    3.174739262  -3.954795277  -4.162766030
  O    2.323062834  -3.026373492  -2.041881960
  O    1.215503763  -3.903081400   2.757229703
  O    1.145491869  -3.027799709   0.250459432
  N    2.183100483  -7.248673020  -3.972695487
  C    1.186673898  -7.238511102  -5.029999039
  N    0.449869713  -8.370054114  -5.279427332
  C    0.622902183  -9.495381455  -4.506781935
  C    1.539396284  -9.494374931  -3.395771201
  C    2.302439828  -8.382404225  -3.166768043
  O    1.047622248  -6.215848454  -5.713309019
  N   -0.125120376 -10.590738338  -4.835435597
  H    0.031251066 -11.482615279  -4.385502438
  H   -0.607342511 -10.620972998  -5.734405449
  H    2.569211067  -5.484553550  -6.321966145
  H    3.048919832  -8.340628104  -2.351322618
  H    1.634274040 -10.373107420  -2.757650038
  H    1.676650310  -2.448432036  -2.562187469
  H   -2.521170113  -3.307435604  -4.884168116
  H   -4.760502699  -2.396985123  -0.911874948
  H    1.921139320  -2.894538989  -0.419824844
  H    2.298873568  -8.581101145  -8.296295457
  H   -1.409825000   2.150247369  -5.777970880

