%mem=64gb
%nproc=28       
%Chk=snap_121.chk
# opt b3lyp/6-31g(d,p)  scf=(xqc, tight)  pop=min    

tetra snap_121 

2     1 
  O    3.030193994  -3.223639099  -6.210063070
  C    2.788148774  -2.483692398  -7.399835842
  H    3.401626181  -2.869970908  -8.235651279
  H    3.131814904  -1.459726269  -7.136019541
  C    1.297885663  -2.478839286  -7.768834629
  H    0.996166966  -1.527744404  -8.270081994
  O    1.084353667  -3.494703609  -8.808148205
  C    0.045122639  -4.392225767  -8.453498106
  H   -0.662877082  -4.424031620  -9.321932778
  C    0.349107414  -2.826019401  -6.603042377
  H    0.920505122  -3.085624327  -5.667817905
  C   -0.544688460  -3.967726828  -7.109327082
  H   -1.604251208  -3.638350996  -7.236233576
  H   -0.593222290  -4.795915746  -6.373355528
  O   -0.431068507  -1.627473696  -6.385039174
  N    0.676554650  -5.764678820  -8.359712034
  C    0.004271869  -6.932402587  -7.945804737
  C    0.925008267  -8.006011040  -8.074469181
  N    2.141639300  -7.478338242  -8.542376354
  C    1.997173336  -6.128095725  -8.666627686
  N   -1.289498277  -7.035596999  -7.510956119
  C   -1.701808709  -8.320539308  -7.242418494
  N   -0.837796204  -9.439045885  -7.308098406
  C    0.567865228  -9.352306893  -7.692266710
  N   -2.999037078  -8.478467861  -6.831889391
  H   -3.624549350  -7.652848569  -6.853074053
  H   -3.440008027  -9.384311951  -6.754887428
  O    1.225681394 -10.362661891  -7.653139371
  H    2.759237722  -5.410530433  -8.982452878
  H   -1.175981512 -10.378037293  -7.049306575
  P   -1.278301109  -1.653761486  -4.956697180
  O   -1.381135968  -0.000000510  -4.833972293
  C   -0.588819231   0.611279680  -3.783871627
  H    0.106146781   1.303355372  -4.312084187
  H    0.008822853  -0.134222517  -3.216596025
  C   -1.541501114   1.385764221  -2.867540531
  H   -1.272568895   1.244771619  -1.786167332
  O   -1.300011582   2.802638354  -3.108550010
  C   -2.523578131   3.521941375  -3.287473351
  H   -2.491761945   4.367614368  -2.552365382
  C   -3.057308539   1.145549890  -3.113053198
  H   -3.281011504   0.604038387  -4.065602838
  C   -3.685666656   2.545019037  -3.099551578
  H   -4.196972684   2.705218163  -2.117080366
  H   -4.495472368   2.661856956  -3.843377539
  O   -3.622285167   0.425496797  -2.010064617
  O   -0.524126078  -2.352514726  -3.893216862
  O   -2.685549846  -2.132163071  -5.600578948
  N   -2.455588926   4.121413502  -4.657412725
  C   -2.223360431   3.510215000  -5.887862711
  C   -2.041747738   4.562892054  -6.845578728
  N   -2.155648513   5.806928353  -6.207135816
  C   -2.385892699   5.546586897  -4.923826963
  N   -2.178218265   2.178311623  -6.288254079
  C   -1.877920159   1.936857723  -7.639675946
  N   -1.688130416   2.877248820  -8.552659524
  C   -1.755188831   4.244797834  -8.210536860
  H   -1.809138516   0.868288478  -7.947457360
  N   -1.534529690   5.154708567  -9.173706912
  H   -1.328952446   4.877273290 -10.132583165
  H   -1.570016589   6.154499340  -8.971305898
  H   -2.526732322   6.280044069  -4.132211677
  P   -3.229273018  -1.192305850  -1.972148357
  O   -1.982494818  -1.011386837  -0.941442769
  C   -1.049282776  -2.125480953  -0.844280220
  H   -0.650278361  -2.397803771  -1.854563336
  H   -0.225030975  -1.708225485  -0.228869024
  C   -1.800678452  -3.255393983  -0.157482743
  H   -2.022182867  -3.046632470   0.916319106
  O   -3.107980222  -3.235376694  -0.834267525
  C   -3.500543942  -4.580245928  -1.259800364
  H   -4.547112628  -4.667041809  -0.870232262
  C   -1.244296606  -4.679813992  -0.354006877
  H   -0.510834702  -4.744503593  -1.207908462
  C   -2.502398037  -5.533674442  -0.614105076
  H   -2.265307622  -6.438467774  -1.216607272
  H   -2.902835048  -5.939247741   0.342735666
  O   -0.621179030  -5.011241471   0.891020832
  O   -2.904070868  -1.676181898  -3.356592234
  O   -4.656199379  -1.690131310  -1.381247400
  N   -3.544039090  -4.611605490  -2.747756824
  C   -2.475538609  -5.143544422  -3.542284900
  N   -2.820330728  -5.458097589  -4.881072178
  C   -4.109995732  -5.240073095  -5.478604145
  C   -5.000965194  -4.384159117  -4.679090647
  C   -4.726625578  -4.137276264  -3.375005046
  O   -1.359401766  -5.370299421  -3.119946184
  H   -2.123010578  -5.979660614  -5.438700038
  O   -4.322171144  -5.786950879  -6.540781267
  C   -6.217661017  -3.872922655  -5.365595159
  H   -6.696158935  -3.036098894  -4.839012155
  H   -5.992976026  -3.528760959  -6.389572752
  H   -6.977805358  -4.668959969  -5.471055443
  H   -5.407290992  -3.554248224  -2.731570592
  P    0.402471557  -6.321557097   0.850819933
  O    1.859497431  -5.595865086   0.601122349
  C    2.631834472  -6.080159496  -0.524066011
  H    3.599426406  -6.397035657  -0.073159753
  H    2.168498725  -6.947321011  -1.038696938
  C    2.837065914  -4.869682890  -1.443039421
  H    3.213149393  -3.981032077  -0.874120636
  O    3.934463711  -5.223022365  -2.338580453
  C    3.533539779  -5.181844691  -3.710022133
  H    4.293192261  -4.539071961  -4.219401405
  C    1.633430686  -4.485180960  -2.329014152
  H    0.689161364  -5.046190072  -2.099500150
  C    2.083268201  -4.691550603  -3.779167324
  H    1.412449604  -5.395297760  -4.309996962
  H    2.014206237  -3.739103087  -4.360973850
  O    1.380938588  -3.111603445  -2.016551240
  O    0.045570136  -7.381406948  -0.097573210
  O    0.458070778  -6.626348453   2.439709524
  N    3.673201525  -6.591550324  -4.248229193
  C    3.242366204  -6.885762205  -5.601712186
  N    3.274974191  -8.183096174  -6.055479768
  C    3.740377331  -9.189292681  -5.239188707
  C    4.272384043  -8.895395309  -3.933298157
  C    4.220585758  -7.607549115  -3.468954687
  O    2.835024385  -5.958018018  -6.308725446
  N    3.659385423 -10.454862835  -5.739602333
  H    3.978437518 -11.258920092  -5.220234928
  H    3.185552985 -10.627208087  -6.626077649
  H    3.040096223  -4.211416995  -6.389012956
  H    4.602691323  -7.319108665  -2.473606714
  H    4.710944810  -9.685300538  -3.323755495
  H    0.925349467  -2.658230115  -2.780706420
  H   -3.414655038  -2.400874019  -4.917533716
  H   -4.722192502  -1.840834672  -0.386098486
  H    0.863275695  -5.923556273   3.034124454
  H    3.017572123  -8.005593868  -8.512057709
  H   -2.226804271   1.394985631  -5.603545694

