%mem=64gb
%nproc=28       
%Chk=snap_158.chk
# opt b3lyp/6-31g(d,p)  scf=(xqc, tight)  pop=min    

tetra snap_158 

2     1 
  O    3.098048432  -3.997687279  -4.801650718
  C    3.336943484  -2.754536978  -5.468634299
  H    4.253313953  -2.963556034  -6.065073400
  H    3.560455814  -1.982309768  -4.705960214
  C    2.190464966  -2.316475179  -6.383731820
  H    2.271321851  -1.230303616  -6.644587965
  O    2.348130230  -2.972862316  -7.680433492
  C    1.265722994  -3.841500771  -7.961466420
  H    1.018672991  -3.684548379  -9.044084265
  C    0.771324671  -2.658628062  -5.876510606
  H    0.781150851  -3.135560184  -4.858119377
  C    0.146778355  -3.564734550  -6.950895138
  H   -0.706669582  -3.043737873  -7.438896285
  H   -0.292261083  -4.480245400  -6.508590887
  O    0.072604559  -1.395133044  -5.879312299
  N    1.783049664  -5.253317771  -7.825171644
  C    1.755890019  -6.238018549  -8.829968670
  C    2.272736195  -7.433241921  -8.247479247
  N    2.646758151  -7.137292607  -6.920735730
  C    2.359080365  -5.838986946  -6.679055824
  N    1.333472825  -6.101583304 -10.124939895
  C    1.470023567  -7.228014396 -10.896193190
  N    1.938065550  -8.464590938 -10.387190757
  C    2.350816050  -8.653579829  -9.004830542
  N    1.108256242  -7.145569211 -12.215615891
  H    0.804426638  -6.251665325 -12.596862574
  H    1.228057120  -7.906557756 -12.867909917
  O    2.677140054  -9.773171925  -8.679134613
  H    2.585928627  -5.223592453  -5.728809873
  H    2.001640788  -9.294636758 -10.994699012
  P   -0.919245599  -1.151482852  -4.573812876
  O   -1.217953416   0.447405986  -4.890793703
  C   -0.619928100   1.472897702  -4.072310900
  H   -0.066143550   2.110651787  -4.802828243
  H    0.085257189   1.053179801  -3.326508526
  C   -1.733716897   2.277617239  -3.401505018
  H   -1.371667891   2.738746317  -2.447246429
  O   -2.039554759   3.410109768  -4.276622226
  C   -3.447947873   3.672761099  -4.301579100
  H   -3.564250685   4.748192896  -4.013971775
  C   -3.089180721   1.555681953  -3.183958140
  H   -3.256137812   0.719120376  -3.912036145
  C   -4.134372142   2.663581276  -3.376070722
  H   -4.387215220   3.116246075  -2.387504742
  H   -5.102964762   2.284005522  -3.751369749
  O   -3.142261149   1.106697219  -1.832465741
  O   -0.238902963  -1.560578478  -3.330597690
  O   -2.273208997  -1.700795207  -5.264278670
  N   -3.888446592   3.537579293  -5.725070778
  C   -3.817943269   2.442963182  -6.582799727
  C   -4.420979915   2.846622836  -7.820698573
  N   -4.832525367   4.185072665  -7.728771577
  C   -4.512503600   4.589613119  -6.501942464
  N   -3.326426276   1.151958329  -6.425353319
  C   -3.417468470   0.298953657  -7.533390799
  N   -3.985575541   0.620231735  -8.689754192
  C   -4.515851710   1.909706229  -8.897666186
  H   -2.993837566  -0.727089138  -7.401143889
  N   -5.083666233   2.180919836 -10.086945134
  H   -5.131769349   1.481331668 -10.824355900
  H   -5.479165916   3.100361714 -10.282660037
  H   -4.680220077   5.581164997  -6.086368966
  P   -2.904619797  -0.532851829  -1.640676506
  O   -1.747454867  -0.445858609  -0.503155672
  C   -0.770116974  -1.514363363  -0.479478073
  H   -0.063020231  -1.388421878  -1.334271760
  H   -0.231822031  -1.294428769   0.469443358
  C   -1.457283038  -2.880896246  -0.447921398
  H   -1.332019980  -3.388874011   0.537630654
  O   -2.888942195  -2.611100198  -0.618770309
  C   -3.528739665  -3.863618273  -1.119773607
  H   -3.884705897  -4.369873104  -0.185264414
  C   -1.129780908  -3.848562907  -1.610929637
  H   -0.768793827  -3.316369789  -2.532728537
  C   -2.427439260  -4.638362907  -1.841082762
  H   -2.618116911  -4.784286802  -2.930996346
  H   -2.337731087  -5.670680125  -1.434815693
  O   -0.133251589  -4.748001723  -1.071744146
  O   -2.649492596  -1.126321730  -2.998405487
  O   -4.322985379  -0.806333385  -0.888346185
  N   -4.704205501  -3.443231361  -1.905849950
  C   -4.616939963  -3.116949209  -3.289005628
  N   -5.623709956  -2.295841912  -3.819988711
  C   -6.758373491  -1.781714345  -3.076677693
  C   -6.886788284  -2.361935371  -1.724966923
  C   -5.882871454  -3.084533443  -1.178202250
  O   -3.727172119  -3.554002297  -4.019315985
  H   -5.561938807  -2.066106272  -4.822901689
  O   -7.439052943  -0.960280670  -3.637929463
  C   -8.179047997  -2.112958524  -1.033994478
  H   -8.564510432  -1.098387242  -1.240650388
  H   -8.957916850  -2.813487049  -1.385050363
  H   -8.122044985  -2.214174247   0.057951344
  H   -5.929550055  -3.465846300  -0.150465908
  P    0.989538556  -5.272599728  -2.138399060
  O    2.346084753  -4.809627042  -1.348537014
  C    3.581563101  -5.451558925  -1.751229226
  H    3.566425909  -5.838097057  -2.795695351
  H    4.306739690  -4.605326391  -1.707634414
  C    3.928220351  -6.515999204  -0.709650858
  H    3.673183508  -6.158994267   0.319051310
  O    3.072926707  -7.694017125  -0.856847525
  C    3.828434510  -8.862339642  -1.259614682
  H    3.636733469  -9.593885985  -0.433436582
  C    5.393724729  -7.016472571  -0.834349504
  H    6.039017400  -6.356880446  -1.462852530
  C    5.292365474  -8.446974161  -1.393772008
  H    5.645021835  -8.473018613  -2.447882382
  H    5.977164350  -9.134788250  -0.857605999
  O    6.048597175  -6.960575073   0.416439726
  O    0.899011776  -4.713491402  -3.519213088
  O    0.835191082  -6.876070793  -2.046333250
  N    3.215359630  -9.375231907  -2.519402198
  C    3.323376914  -8.658954476  -3.793624630
  N    2.909867180  -9.298545000  -4.946865256
  C    2.410148822 -10.572392866  -4.913251299
  C    2.214424132 -11.254636734  -3.650852857
  C    2.624954008 -10.648059192  -2.500969783
  O    3.763585288  -7.521493145  -3.806171635
  N    2.092283985 -11.144743346  -6.106882653
  H    1.777831287 -12.101162722  -6.173713957
  H    2.310708129 -10.665469159  -6.986514727
  H    2.320913153  -3.933607387  -4.144759172
  H    2.512301022 -11.137813691  -1.521048485
  H    1.748073573 -12.240199415  -3.627770667
  H    5.644741544  -7.556176015   1.086426711
  H   -2.935471336  -2.226492496  -4.651344093
  H   -4.275715897  -1.009045974   0.098101245
  H    1.689257419  -7.430458453  -1.837401232
  H    3.022777520  -7.842597295  -6.246863936
  H   -2.762820795   0.871843351  -5.578614830

