%mem=64gb
%nproc=28       
%Chk=snap_35.chk
# opt b3lyp/6-31g(d,p)  scf=(xqc, tight)  pop=min    

tetra snap_35 

2     1 
  O    2.152158699  -4.314898369  -7.706898810
  C    2.352542046  -3.060636673  -8.384711533
  H    3.294111597  -3.236936296  -8.953317494
  H    2.535510102  -2.277343109  -7.617376841
  C    1.212832586  -2.674776344  -9.327573640
  H    1.324268367  -1.609950364  -9.658580877
  O    1.367827064  -3.426604773 -10.576875575
  C    0.183003904  -4.135853430 -10.903823623
  H    0.053096039  -4.046191726 -12.012312852
  C   -0.223518021  -2.972363324  -8.822127049
  H   -0.251448939  -3.666486401  -7.937793637
  C   -0.946032004  -3.592401805 -10.024719602
  H   -1.535058148  -2.810465265 -10.557002446
  H   -1.684551540  -4.359402569  -9.725938847
  O   -0.910362771  -1.738006243  -8.521577353
  N    0.458427744  -5.591240284 -10.596673043
  C    0.069879941  -6.692131048 -11.391606410
  C    0.616916423  -7.852721892 -10.776968662
  N    1.318364450  -7.438614869  -9.625511132
  C    1.218901070  -6.089881952  -9.529334979
  N   -0.690525335  -6.671803148 -12.526456426
  C   -0.898665395  -7.907833818 -13.096883802
  N   -0.364070907  -9.104434001 -12.571675547
  C    0.437761434  -9.165940953 -11.349332499
  N   -1.690199347  -7.957860691 -14.215160059
  H   -2.051728579  -7.091716707 -14.610727869
  H   -1.830309470  -8.801644672 -14.752555987
  O    0.832983818 -10.242431031 -10.988668340
  H    1.679503239  -5.396490496  -8.704663507
  H   -0.527865714 -10.006782440 -13.042930429
  P   -0.547808228  -1.148385037  -7.022991705
  O   -1.913521702  -0.268175395  -6.685883754
  C   -1.696381219   1.135796273  -6.456072331
  H   -2.706608033   1.563340663  -6.624245614
  H   -0.988271392   1.579154739  -7.185365315
  C   -1.215876051   1.324480344  -5.007233145
  H   -0.121097272   1.117343855  -4.863681828
  O   -1.322278731   2.741019659  -4.672245986
  C   -2.385270491   2.976333236  -3.745598267
  H   -1.966481444   3.691494318  -2.990370537
  C   -2.087646046   0.553484096  -3.985511742
  H   -2.761721825  -0.196611486  -4.462884887
  C   -2.858341197   1.633034656  -3.198070543
  H   -2.613992983   1.544982745  -2.111765245
  H   -3.948609770   1.465751721  -3.255046230
  O   -1.124114155  -0.050449814  -3.112457195
  O    0.698517396  -0.374845562  -6.917814122
  O   -0.726291156  -2.468760341  -6.134056960
  N   -3.433110196   3.707847664  -4.544564236
  C   -3.167324137   4.498787833  -5.658440930
  C   -4.406381057   5.100069835  -6.051128860
  N   -5.421754828   4.679620365  -5.181219225
  C   -4.845681526   3.865709249  -4.294599638
  N   -1.983158295   4.747297785  -6.351639348
  C   -2.075792732   5.641018873  -7.432005046
  N   -3.196403872   6.223606549  -7.829296254
  C   -4.423103959   5.997580185  -7.167650498
  H   -1.136604560   5.864167775  -7.987471230
  N   -5.513727464   6.635004136  -7.620587102
  H   -5.464352250   7.274628297  -8.415162427
  H   -6.422296289   6.510675681  -7.171620041
  H   -5.341233701   3.374185756  -3.461857179
  P   -1.361215522  -1.592290963  -2.574716769
  O   -0.647606846  -1.370023154  -1.138889559
  C   -0.081186766  -2.569107879  -0.538035416
  H    0.669537940  -3.029944470  -1.219055568
  H    0.435437238  -2.167929378   0.363153107
  C   -1.253452822  -3.479343891  -0.187485886
  H   -1.888576578  -3.079279476   0.637331676
  O   -2.129040959  -3.439426218  -1.372462039
  C   -2.427266639  -4.807881025  -1.840037470
  H   -3.538783084  -4.797335050  -1.949832975
  C   -0.880959490  -4.962676809   0.035900595
  H    0.172158431  -5.215871199  -0.269170815
  C   -1.897084398  -5.759473748  -0.783751582
  H   -1.426422743  -6.698614748  -1.199245152
  H   -2.691251418  -6.167636880  -0.117953501
  O   -1.149802875  -5.261242055   1.421781989
  O   -0.796814081  -2.558104640  -3.568021993
  O   -2.993536556  -1.531990474  -2.463244162
  N   -1.798617806  -4.979472233  -3.175162478
  C   -0.369367571  -5.000003530  -3.319022755
  N    0.112447473  -5.174681577  -4.648208357
  C   -0.705949029  -5.188975806  -5.804879211
  C   -2.146018434  -5.040425947  -5.576591879
  C   -2.632681938  -4.917297170  -4.315506042
  O    0.408911953  -4.941380238  -2.389266306
  H    1.138842911  -5.208145918  -4.755740962
  O   -0.138682215  -5.325565067  -6.890332925
  C   -3.005504572  -4.972663568  -6.790371445
  H   -2.951034584  -3.969542367  -7.247110290
  H   -2.677630451  -5.700269032  -7.550021232
  H   -4.062759094  -5.185768864  -6.583975056
  H   -3.705722275  -4.785757504  -4.120694456
  P    0.136443036  -5.272029247   2.434008205
  O    1.369157345  -5.388540601   1.359701292
  C    2.705691667  -5.637931845   1.880631384
  H    3.060966508  -4.702111286   2.356643286
  H    2.688967397  -6.473527742   2.612614437
  C    3.572714256  -6.010881201   0.668080418
  H    4.600799862  -5.596166402   0.789379302
  O    3.792252301  -7.444729360   0.668504294
  C    2.928158630  -8.086437924  -0.301052920
  H    3.506448513  -8.980484050  -0.632941603
  C    2.958704333  -5.672622126  -0.721646442
  H    2.052608427  -5.021757003  -0.666203824
  C    2.673398771  -7.034893434  -1.379310592
  H    1.638687934  -7.065943183  -1.801931913
  H    3.321532706  -7.202753567  -2.258472144
  O    3.853419396  -4.875207233  -1.480881075
  O    0.064156996  -6.161726173   3.592229361
  O    0.234028170  -3.655217655   2.760292387
  N    1.730181817  -8.538122627   0.484629300
  C    0.337949336  -8.259695592   0.110102073
  N   -0.623195612  -8.312237688   1.101856906
  C   -0.319844910  -8.757916999   2.354287055
  C    1.015326651  -9.198767947   2.690275838
  C    2.003358765  -9.046066704   1.762646772
  O    0.089563537  -7.960616918  -1.049563463
  N   -1.345746069  -8.818503172   3.269131350
  H   -1.128426725  -8.833051216   4.257246234
  H   -2.232440303  -8.388633893   3.030009328
  H    1.320321403  -4.298269487  -7.138254465
  H    3.052864353  -9.299902683   1.983502111
  H    1.220475261  -9.627754893   3.669012268
  H    4.700952878  -5.334307918  -1.663676490
  H   -0.765701668  -2.382135390  -5.049389177
  H   -3.441776243  -2.116610293  -1.774986155
  H    0.098307637  -3.351673813   3.692376992
  H    1.799934392  -8.075062569  -8.997672117
  H   -1.107493136   4.292775751  -6.040682006

