%mem=64gb
%nproc=28       
%Chk=snap_123.chk
# opt b3lyp/6-31g(d,p)  scf=(xqc, tight)  pop=min    

tetra snap_123 

2     1 
  O    3.164577874  -3.239033806  -6.258477221
  C    2.874188294  -2.550751649  -7.469478244
  H    3.436374390  -2.985984166  -8.316929137
  H    3.251789077  -1.523623566  -7.272599388
  C    1.366666441  -2.529761614  -7.761283428
  H    1.057773380  -1.597477315  -8.293542741
  O    1.079514869  -3.588260548  -8.738559706
  C    0.035580589  -4.439123608  -8.292598381
  H   -0.738044041  -4.452263075  -9.103489668
  C    0.475798756  -2.796762641  -6.530858457
  H    1.092000526  -2.986952631  -5.610435958
  C   -0.434683612  -3.973893492  -6.914321007
  H   -1.508169833  -3.667879978  -6.958011956
  H   -0.392233825  -4.774952980  -6.148193015
  O   -0.293180621  -1.582549717  -6.350108407
  N    0.617963016  -5.833916289  -8.230713639
  C   -0.095938533  -6.990662277  -7.855631065
  C    0.801845481  -8.084673722  -7.971065977
  N    2.041536268  -7.583745686  -8.408601366
  C    1.935601207  -6.228462043  -8.513324855
  N   -1.403388724  -7.069198856  -7.460203225
  C   -1.852366080  -8.347830003  -7.213101047
  N   -1.012518668  -9.485302600  -7.268367320
  C    0.406012873  -9.424561498  -7.607478194
  N   -3.161371745  -8.477841996  -6.834101642
  H   -3.769299643  -7.637568985  -6.856404539
  H   -3.624040279  -9.373255756  -6.760506271
  O    1.049116895 -10.443592813  -7.546969350
  H    2.723392131  -5.527880248  -8.802937122
  H   -1.379617188 -10.418800649  -7.029371980
  P   -1.115189648  -1.551343371  -4.906816326
  O   -1.254542153   0.103113748  -4.830911126
  C   -0.422844142   0.745931044  -3.829333126
  H    0.218777175   1.454927384  -4.401852592
  H    0.232096802   0.023635760  -3.293018176
  C   -1.334947606   1.502831725  -2.859137836
  H   -1.003452784   1.367366722  -1.796025325
  O   -1.119424007   2.922390294  -3.116316006
  C   -2.355959743   3.632903850  -3.212334442
  H   -2.273750651   4.481567698  -2.484796501
  C   -2.860819275   1.253274066  -3.012175631
  H   -3.134518085   0.717087320  -3.953818160
  C   -3.495648464   2.649324777  -2.943182908
  H   -3.930003350   2.799629280  -1.922552449
  H   -4.360283686   2.764670206  -3.622311698
  O   -3.355121002   0.530322611  -1.879073709
  O   -0.330146051  -2.182365647  -3.822964182
  O   -2.516960131  -2.094137757  -5.517459515
  N   -2.397720806   4.222038668  -4.587098564
  C   -2.293654562   3.601691111  -5.829944158
  C   -2.259486019   4.647319497  -6.811301214
  N   -2.328598219   5.895238249  -6.174314582
  C   -2.397450101   5.644337430  -4.869982177
  N   -2.247855235   2.266444078  -6.220921713
  C   -2.099152765   2.017741188  -7.595862027
  N   -2.063299822   2.951372769  -8.534527951
  C   -2.144756478   4.319827812  -8.199349610
  H   -2.019284587   0.948807895  -7.899248779
  N   -2.107576848   5.225847389  -9.190160680
  H   -2.020503112   4.945893506 -10.166263452
  H   -2.161635120   6.225694907  -8.988675356
  H   -2.457911469   6.384154324  -4.073390560
  P   -3.036689707  -1.103101583  -1.898049266
  O   -1.813996510  -1.030231419  -0.830053073
  C   -0.913757382  -2.174496952  -0.788532819
  H   -0.495164175  -2.381672729  -1.806760856
  H   -0.099260007  -1.821436261  -0.121150713
  C   -1.707940956  -3.331804924  -0.202109653
  H   -1.931574735  -3.204511220   0.883824882
  O   -3.007358058  -3.215290436  -0.887181042
  C   -3.460759409  -4.518532791  -1.376438533
  H   -4.508302494  -4.577545740  -0.985784101
  C   -1.203752672  -4.756444998  -0.508920308
  H   -0.494146278  -4.788388766  -1.381339918
  C   -2.501277778  -5.544772840  -0.787594817
  H   -2.309148237  -6.434049438  -1.429501349
  H   -2.909490929  -5.974221444   0.154827185
  O   -0.553728857  -5.193537369   0.689692154
  O   -2.730737696  -1.542494519  -3.301782203
  O   -4.487202907  -1.566345110  -1.333421978
  N   -3.506424327  -4.482255858  -2.862833663
  C   -2.482786084  -5.069769812  -3.678266612
  N   -2.897493320  -5.442546385  -4.980995910
  C   -4.201858611  -5.199855435  -5.532889231
  C   -5.003334367  -4.236460443  -4.757747560
  C   -4.679492183  -3.958526484  -3.471891983
  O   -1.347037887  -5.281415397  -3.304155447
  H   -2.246046129  -6.017677383  -5.542422660
  O   -4.498649329  -5.811916798  -6.537846594
  C   -6.171855868  -3.645047106  -5.460014522
  H   -5.866937076  -3.145165822  -6.394864783
  H   -6.897805944  -4.426225990  -5.753607964
  H   -6.720102301  -2.908812758  -4.857531288
  H   -5.297119706  -3.305433802  -2.833008994
  P    0.293700051  -6.617854053   0.552538460
  O    1.853319505  -6.104389736   0.480813454
  C    2.589951882  -6.444727812  -0.717919209
  H    3.541895808  -6.867313572  -0.323746695
  H    2.085286774  -7.208012502  -1.344469221
  C    2.853274238  -5.124059930  -1.450894415
  H    3.152162830  -4.314994301  -0.734974594
  O    4.038550819  -5.333294117  -2.277078432
  C    3.738232843  -5.225551771  -3.669060857
  H    4.569029209  -4.615541740  -4.101343115
  C    1.728207011  -4.641326858  -2.392072335
  H    0.778128935  -5.233052306  -2.332163118
  C    2.328238591  -4.642836118  -3.803706374
  H    1.689557473  -5.203002108  -4.513904249
  H    2.381497457  -3.606404356  -4.218280269
  O    1.418586810  -3.325106925  -1.925652009
  O   -0.149655756  -7.498492601  -0.535206106
  O    0.196849100  -7.110000010   2.091890518
  N    3.834714318  -6.628478189  -4.242560651
  C    3.341278108  -6.921283169  -5.573615769
  N    3.311738953  -8.224849317  -6.013350466
  C    3.779762321  -9.237996541  -5.209004842
  C    4.412024048  -8.943887170  -3.947820708
  C    4.417982834  -7.651374034  -3.495722858
  O    2.938920778  -5.990834074  -6.280504448
  N    3.602566484 -10.507072624  -5.673462867
  H    3.928505310 -11.314940710  -5.164361540
  H    3.068633360 -10.675963905  -6.525297981
  H    3.190219580  -4.230943621  -6.398219631
  H    4.874862076  -7.362902813  -2.531997975
  H    4.883482648  -9.736959305  -3.367784031
  H    0.990657901  -2.783384693  -2.650439196
  H   -3.232947876  -2.349188675  -4.818328796
  H   -4.542213955  -1.837679569  -0.362298592
  H    0.665400598  -6.558173261   2.788860953
  H    2.905888416  -8.131161619  -8.353100608
  H   -2.188139891   1.491427788  -5.528097977

