%mem=64gb
%nproc=28       
%Chk=snap_182.chk
# opt b3lyp/6-31g(d,p)  scf=(xqc, tight)  pop=min    

tetra snap_182 

2     1 
  O    3.070426440  -3.808671124  -4.300854288
  C    3.474344020  -3.091644659  -5.468919211
  H    4.266794459  -3.661811219  -5.996662177
  H    3.913502530  -2.165422812  -5.039466233
  C    2.312456051  -2.778522183  -6.421910962
  H    2.395063916  -1.757276146  -6.869469961
  O    2.444716599  -3.659629231  -7.582159072
  C    1.342751906  -4.546560589  -7.697758815
  H    1.021985889  -4.494326112  -8.771425978
  C    0.906663311  -3.022928992  -5.832596317
  H    0.953640830  -3.235899691  -4.735473840
  C    0.300153709  -4.176705784  -6.648037399
  H   -0.661270235  -3.872063732  -7.121011498
  H    0.008650467  -5.021619819  -5.979352894
  O    0.174587131  -1.795031401  -6.084919191
  N    1.886288291  -5.938478735  -7.477139325
  C    1.987054297  -6.934900108  -8.467641232
  C    2.595000958  -8.068656544  -7.849521149
  N    2.874146274  -7.735825206  -6.514183152
  C    2.444822016  -6.472620623  -6.298249996
  N    1.575576734  -6.873127054  -9.770889300
  C    1.800630775  -8.012815233 -10.502632527
  N    2.387447952  -9.185425248  -9.960048146
  C    2.815119935  -9.290033894  -8.577517388
  N    1.417286708  -8.006894440 -11.817130430
  H    1.005266617  -7.163679718 -12.214426010
  H    1.571249657  -8.782668726 -12.444609302
  O    3.273803383 -10.349436883  -8.208845226
  H    2.482286691  -5.935110103  -5.330373694
  H    2.527284354 -10.024893100 -10.542377192
  P   -1.092635955  -1.575737773  -5.049078013
  O   -2.040090276  -0.503298439  -5.857547172
  C   -1.544634398   0.854132366  -5.924697655
  H   -2.295866571   1.339392499  -6.583141201
  H   -0.564895253   0.881974576  -6.444154251
  C   -1.490165728   1.517089357  -4.539479035
  H   -0.501183985   1.386631930  -4.024027813
  O   -1.581383437   2.951870106  -4.759910154
  C   -2.746944189   3.505101531  -4.147917961
  H   -2.386572783   4.428687837  -3.620732253
  C   -2.663790617   1.127296033  -3.604696761
  H   -3.360145219   0.395715336  -4.078493472
  C   -3.361432820   2.448961637  -3.237449501
  H   -3.133614622   2.677728395  -2.162699043
  H   -4.464052624   2.380224731  -3.252566204
  O   -2.096604359   0.629829024  -2.385057127
  O   -0.557521834  -1.115601040  -3.716730415
  O   -1.793037394  -3.012719811  -5.256198005
  N   -3.616092095   3.973162435  -5.277331556
  C   -4.683748378   3.388126136  -5.952879957
  C   -5.029665241   4.280492172  -7.025083317
  N   -4.155202211   5.377602348  -7.031311946
  C   -3.318781404   5.187145996  -6.015401338
  N   -5.402946949   2.211595817  -5.762419152
  C   -6.499494664   1.999936864  -6.614828556
  N   -6.856407823   2.798686569  -7.610166275
  C   -6.147854197   3.989182328  -7.868039197
  H   -7.097558663   1.078236359  -6.432813643
  N   -6.563759179   4.773465805  -8.877933955
  H   -7.372247570   4.525816044  -9.446960415
  H   -6.086436601   5.648986545  -9.092231107
  H   -2.490540313   5.831411697  -5.723978735
  P   -2.191785946  -1.009290541  -2.172306555
  O   -0.909821888  -1.399733468  -1.249305087
  C   -0.321627440  -2.697589284  -1.489390980
  H    0.203814284  -2.701700140  -2.464739442
  H    0.448742354  -2.743637190  -0.686562881
  C   -1.384798545  -3.789700703  -1.315842195
  H   -1.230587930  -4.354899532  -0.364495949
  O   -2.654152392  -3.076884182  -1.176212341
  C   -3.763054098  -3.977626917  -1.560519491
  H   -4.198566721  -4.314443383  -0.585716002
  C   -1.636609465  -4.767233967  -2.492543773
  H   -1.363358475  -4.374179225  -3.498729942
  C   -3.131535372  -5.108185681  -2.373391961
  H   -3.603317237  -5.273457264  -3.370114158
  H   -3.249257035  -6.091775407  -1.859901695
  O   -0.962463967  -6.017248102  -2.213171979
  O   -2.745304156  -1.692801198  -3.421902034
  O   -3.326669655  -0.882127773  -0.971642335
  N   -4.772177645  -3.119579379  -2.243543986
  C   -4.688254586  -2.876018433  -3.650239489
  N   -5.265883034  -1.675195263  -4.150065578
  C   -5.796069011  -0.652414374  -3.318027301
  C   -6.017560410  -1.039476827  -1.925943857
  C   -5.460719882  -2.175119738  -1.427222764
  O   -4.258753622  -3.704362707  -4.446437630
  H   -5.104954289  -1.484031788  -5.148762302
  O   -5.999667237   0.442691708  -3.838439085
  C   -6.798958625  -0.101897946  -1.074133058
  H   -7.288006276   0.687851995  -1.668050234
  H   -7.597695108  -0.615137542  -0.516930651
  H   -6.147943200   0.406920742  -0.343549887
  H   -5.533489048  -2.432035856  -0.360590836
  P    0.584550087  -6.151440889  -2.714509951
  O    1.328306832  -5.260239522  -1.546740490
  C    2.775507696  -5.303379699  -1.546777130
  H    3.207516631  -5.622277706  -2.522064634
  H    3.052906203  -4.237312865  -1.374596078
  C    3.231997544  -6.182236619  -0.380515795
  H    2.696487446  -5.934207814   0.571443394
  O    2.853685928  -7.578271492  -0.595681358
  C    4.013338140  -8.438621861  -0.683145958
  H    3.891066271  -9.139252549   0.183219835
  C    4.772672859  -6.158256665  -0.206689522
  H    5.281194824  -5.358833247  -0.786681651
  C    5.264036542  -7.563460954  -0.601864103
  H    5.822875856  -7.534337165  -1.560410358
  H    5.977899746  -7.959110977   0.149440737
  O    4.944300598  -5.922058102   1.190297758
  O    0.908819532  -5.683359902  -4.091432235
  O    0.867716618  -7.709861171  -2.428538336
  N    3.876383553  -9.206013573  -1.959402674
  C    3.861496361  -8.556962983  -3.270050387
  N    3.713487911  -9.356713834  -4.392398888
  C    3.630160306 -10.722138642  -4.299856618
  C    3.658888023 -11.368860375  -3.006907956
  C    3.766401714 -10.601900385  -1.884590814
  O    3.954776394  -7.343244761  -3.348658505
  N    3.502534096 -11.417547877  -5.461677715
  H    3.456342951 -12.426186088  -5.478774497
  H    3.506499746 -10.942864101  -6.370615937
  H    2.577772222  -4.640681454  -4.532452011
  H    3.775157071 -11.053603207  -0.880012570
  H    3.588085172 -12.455364518  -2.936732994
  H    5.866353011  -5.661305339   1.407649588
  H   -2.770212463  -3.128611686  -4.929216806
  H   -3.008739795  -1.111488874  -0.052198760
  H    1.665648041  -7.934492557  -1.797075138
  H    3.325293447  -8.395218117  -5.801777317
  H   -5.231834771   1.562836634  -4.954873574

