%mem=64gb
%nproc=28       
%Chk=snap_122.chk
# opt b3lyp/6-31g(d,p)  scf=(xqc, tight)  pop=min    

tetra snap_122 

2     1 
  O    2.945672803  -3.182480194  -6.268795549
  C    2.703627781  -2.447965603  -7.461622825
  H    3.333379694  -2.821742307  -8.291796292
  H    3.024826580  -1.417819086  -7.194469957
  C    1.218301925  -2.471356316  -7.845500716
  H    0.906109678  -1.529437882  -8.356903166
  O    1.042315177  -3.504686180  -8.876969075
  C   -0.012245711  -4.392405573  -8.547632304
  H   -0.663357680  -4.470946081  -9.455693277
  C    0.255020838  -2.831105032  -6.694126803
  H    0.814258054  -3.168095176  -5.778650586
  C   -0.684257308  -3.904459990  -7.265697747
  H   -1.694600214  -3.483496122  -7.487228358
  H   -0.880108840  -4.714563316  -6.535572742
  O   -0.473441319  -1.615195898  -6.411542335
  N    0.617988293  -5.756832766  -8.346652172
  C   -0.077931354  -6.907971028  -7.925132123
  C    0.843050611  -7.987931042  -7.963771830
  N    2.082320156  -7.482116258  -8.395751541
  C    1.948883878  -6.138036986  -8.582715865
  N   -1.390639112  -6.989735276  -7.549048971
  C   -1.824345796  -8.260106953  -7.247093897
  N   -0.967375292  -9.385229152  -7.238766972
  C    0.457465643  -9.318681866  -7.555065549
  N   -3.136421250  -8.389170258  -6.875575007
  H   -3.745895935  -7.553621128  -6.937560936
  H   -3.594224961  -9.285459509  -6.787355732
  O    1.102307728 -10.331720127  -7.444949858
  H    2.728774568  -5.437175039  -8.893647058
  H   -1.324911445 -10.315312986  -6.973434856
  P   -1.289740569  -1.663707377  -4.964155994
  O   -1.373822958  -0.012219368  -4.805284449
  C   -0.573708421   0.572609244  -3.746270513
  H    0.120816588   1.272245763  -4.264775503
  H    0.026830860  -0.184011826  -3.198061374
  C   -1.518028069   1.331424574  -2.808488188
  H   -1.243121468   1.171217115  -1.731227748
  O   -1.270941749   2.751201245  -3.021960689
  C   -2.492497312   3.480613105  -3.173139053
  H   -2.452362816   4.305452857  -2.415128635
  C   -3.036135475   1.101569413  -3.050185694
  H   -3.268644478   0.578215961  -4.010375468
  C   -3.658170049   2.503845611  -3.005232422
  H   -4.167739194   2.645073329  -2.018640837
  H   -4.468595768   2.639902781  -3.745309547
  O   -3.601749820   0.361029585  -1.960660687
  O   -0.524044639  -2.393133623  -3.930631622
  O   -2.716748011  -2.107975948  -5.587503150
  N   -2.423175917   4.114334466  -4.527021974
  C   -2.196358863   3.527884412  -5.770788234
  C   -1.988889971   4.598817962  -6.702315263
  N   -2.078560315   5.829565970  -6.034157331
  C   -2.318636974   5.543473614  -4.758087189
  N   -2.175117991   2.204375449  -6.200785160
  C   -1.865536197   1.986538420  -7.554252057
  N   -1.655689009   2.943483119  -8.445223994
  C   -1.705086783   4.304423334  -8.073462574
  H   -1.809627505   0.923132088  -7.882663693
  N   -1.474528178   5.231209935  -9.017726205
  H   -1.269867555   4.970120913  -9.981691187
  H   -1.495433891   6.227078662  -8.793175428
  H   -2.445340808   6.261387517  -3.949938801
  P   -3.192770553  -1.252396504  -1.930154840
  O   -1.935180506  -1.076114803  -0.913108996
  C   -0.996462216  -2.187545749  -0.837087342
  H   -0.616918966  -2.456494937  -1.855950732
  H   -0.160652271  -1.767294855  -0.237796998
  C   -1.730378337  -3.319635605  -0.133709623
  H   -1.940884865  -3.106418833   0.942609388
  O   -3.045123216  -3.313950379  -0.794355315
  C   -3.417796534  -4.658060380  -1.237540156
  H   -4.454598060  -4.777835022  -0.830499859
  C   -1.159148601  -4.738632033  -0.325617761
  H   -0.392192361  -4.785578572  -1.150723439
  C   -2.391680506  -5.610801176  -0.636875322
  H   -2.123602959  -6.474693553  -1.284760603
  H   -2.780174704  -6.076249322   0.296772468
  O   -0.607445465  -5.088479699   0.951628968
  O   -2.878166361  -1.729421696  -3.319664061
  O   -4.602595480  -1.764308994  -1.311435113
  N   -3.489112411  -4.653477315  -2.723214603
  C   -2.420291436  -5.130335502  -3.552026616
  N   -2.777716979  -5.384154038  -4.900207720
  C   -4.074670819  -5.144201300  -5.475059913
  C   -4.963030883  -4.336590445  -4.625554702
  C   -4.677937711  -4.151780884  -3.313561254
  O   -1.299833904  -5.367376093  -3.147182039
  H   -2.073575379  -5.854471930  -5.494846228
  O   -4.296708608  -5.634136636  -6.562109945
  C   -6.192763847  -3.801800783  -5.268642244
  H   -6.961925751  -4.588773548  -5.369613153
  H   -6.645742943  -2.972399637  -4.709089683
  H   -5.997945751  -3.439043530  -6.291893089
  H   -5.354719098  -3.602551205  -2.636995998
  P    0.571542537  -6.253331883   0.893637546
  O    1.894670171  -5.357015208   0.540286940
  C    2.728276547  -5.871941451  -0.531781327
  H    3.688245072  -6.145712753  -0.040357911
  H    2.302904950  -6.760341557  -1.042247675
  C    2.923379773  -4.674436635  -1.470413017
  H    3.283838439  -3.771941113  -0.913022135
  O    4.024287569  -5.021230047  -2.363640245
  C    3.607982338  -5.049166394  -3.730331339
  H    4.359390229  -4.428974620  -4.278013110
  C    1.709582853  -4.327325895  -2.357838641
  H    0.771126465  -4.887647056  -2.102269296
  C    2.153250569  -4.573476674  -3.803560813
  H    1.484709146  -5.295422519  -4.311012102
  H    2.077063689  -3.635952397  -4.408219602
  O    1.448750980  -2.945265173  -2.093739607
  O    0.289967032  -7.380942218  -0.013080009
  O    0.761319061  -6.520290179   2.481734067
  N    3.738773866  -6.482484272  -4.207241744
  C    3.300131484  -6.830941865  -5.544525677
  N    3.264116667  -8.153034679  -5.923213218
  C    3.674860039  -9.133081941  -5.048510662
  C    4.242239561  -8.789134120  -3.769417871
  C    4.254098026  -7.475954338  -3.378990668
  O    2.946545482  -5.928535982  -6.310195812
  N    3.501057955 -10.420261520  -5.462297379
  H    3.783858020 -11.208864245  -4.900381611
  H    3.013153180 -10.619305837  -6.335630552
  H    3.001657989  -4.168019181  -6.447391362
  H    4.666623049  -7.146964330  -2.409075912
  H    4.658902012  -9.562456136  -3.124872819
  H    0.967980328  -2.533989328  -2.866559116
  H   -3.433540772  -2.385261004  -4.893205617
  H   -4.625043295  -1.972329940  -0.321858813
  H    0.347324410  -7.344961216   2.870949701
  H    2.957000930  -8.005914249  -8.282429542
  H   -2.232189750   1.406533742  -5.534028768

