%mem=64gb
%nproc=28       
%Chk=snap_194.chk
# opt b3lyp/6-31g(d,p)  scf=(xqc, tight)  pop=min    

tetra snap_194 

2     1 
  O    2.115664708  -1.833498542  -4.460690158
  C    2.209943056  -3.064315076  -5.165832869
  H    1.921879624  -3.906094840  -4.507851252
  H    3.293937097  -3.141914767  -5.406872252
  C    1.386044644  -3.001279014  -6.458023628
  H    1.343459915  -1.955821665  -6.853315236
  O    2.131887840  -3.735285578  -7.481814986
  C    1.350219298  -4.759514488  -8.068384971
  H    1.491335228  -4.659418568  -9.177253958
  C   -0.017453638  -3.648100594  -6.389616030
  H   -0.231586406  -4.142223660  -5.408670051
  C   -0.081228161  -4.652987645  -7.548712983
  H   -0.770393060  -4.268605103  -8.337938054
  H   -0.523972984  -5.618068618  -7.235408838
  O   -0.983372163  -2.614765899  -6.716304855
  N    1.994130604  -6.068721728  -7.665907886
  C    2.618779962  -6.949599941  -8.569563089
  C    3.210206779  -7.989624704  -7.791938021
  N    2.952393318  -7.712167943  -6.437147554
  C    2.224204086  -6.570641503  -6.368322426
  N    2.634416573  -6.863229573  -9.933999076
  C    3.295992536  -7.884330987 -10.569999243
  N    3.923318031  -8.948943843  -9.874663404
  C    3.911143006  -9.075837341  -8.426832703
  N    3.321273301  -7.873429303 -11.938435320
  H    2.881815231  -7.104902483 -12.444181777
  H    3.815773478  -8.561265108 -12.488442397
  O    4.459077996 -10.048980712  -7.959007706
  H    1.819271164  -6.096912427  -5.444177706
  H    4.417577974  -9.694594372 -10.388054107
  P   -1.810226514  -2.046512929  -5.412511232
  O   -2.783527448  -0.907001431  -6.078385626
  C   -2.117694257   0.262952716  -6.609244772
  H   -2.958445205   0.803436347  -7.094621035
  H   -1.393516859  -0.022441157  -7.399706263
  C   -1.472222204   1.099464100  -5.494612137
  H   -0.406125975   0.819470414  -5.286931739
  O   -1.380830960   2.462174680  -5.996346987
  C   -2.178189556   3.355891257  -5.220200245
  H   -1.547909048   4.277645101  -5.106150402
  C   -2.305033355   1.154733758  -4.185713893
  H   -3.253439747   0.572339777  -4.260215566
  C   -2.546432263   2.652152947  -3.920713207
  H   -1.857586427   2.974277150  -3.094048276
  H   -3.547163841   2.874523115  -3.514025062
  O   -1.466751535   0.697537382  -3.119093874
  O   -0.779204038  -1.558547652  -4.409417651
  O   -2.732353111  -3.323202691  -5.111659489
  N   -3.334123881   3.729684448  -6.103309754
  C   -4.680908177   3.377244086  -6.108649204
  C   -5.259248602   3.988721056  -7.273354193
  N   -4.268930662   4.672488305  -7.993935714
  C   -3.139342978   4.508544593  -7.311989113
  N   -5.478348707   2.634329425  -5.243173468
  C   -6.850915589   2.576921955  -5.538548671
  N   -7.424059895   3.131819137  -6.596195979
  C   -6.662037937   3.867845026  -7.525070466
  H   -7.489056273   2.013689838  -4.818051419
  N   -7.291880953   4.409746915  -8.581812246
  H   -8.297859405   4.309105862  -8.709862415
  H   -6.779187835   4.956470981  -9.273783758
  H   -2.155614641   4.890889849  -7.579791669
  P   -1.802514612  -0.817696930  -2.540795193
  O   -0.352834587  -1.279138516  -1.969772294
  C   -0.034166188  -2.682511387  -2.041858159
  H    0.214809683  -2.946642302  -3.090855349
  H    0.900027437  -2.723012392  -1.437043815
  C   -1.151338425  -3.530285543  -1.424754272
  H   -0.811416038  -4.017412445  -0.477265726
  O   -2.206103533  -2.587468371  -1.062975561
  C   -3.486825406  -3.331779142  -0.963960274
  H   -3.618830102  -3.521613000   0.131405582
  C   -1.871041641  -4.551248853  -2.346649792
  H   -1.860425189  -4.295326913  -3.432172406
  C   -3.297491476  -4.612709596  -1.779169472
  H   -4.059541825  -4.755872402  -2.580968553
  H   -3.410444091  -5.524639700  -1.147899103
  O   -1.333584626  -5.883874663  -2.159086587
  O   -2.829931072  -1.533123506  -3.414682765
  O   -2.481954071  -0.276464468  -1.135989834
  N   -4.536710711  -2.371795355  -1.397097406
  C   -4.892169659  -2.244362752  -2.778062574
  N   -5.391212468  -0.983976783  -3.211845954
  C   -5.449761690   0.171385872  -2.384602782
  C   -5.277305861  -0.081848338  -0.953380985
  C   -4.775175994  -1.269025052  -0.524656251
  O   -4.915115073  -3.197471150  -3.548196965
  H   -5.549607060  -0.892131767  -4.224845568
  O   -5.627957618   1.250777723  -2.943957521
  C   -5.603607210   1.024241537  -0.012589481
  H   -4.704585565   1.395652477   0.506426589
  H   -6.045642181   1.890159361  -0.532051352
  H   -6.330283960   0.713797213   0.754651294
  H   -4.542481735  -1.447006672   0.534097711
  P    0.178264686  -6.122997593  -2.736934231
  O    0.985954283  -5.300273408  -1.549900451
  C    2.384954590  -5.575537333  -1.341339787
  H    2.903464678  -5.887405948  -2.272570073
  H    2.780731232  -4.578586907  -1.038028981
  C    2.520290328  -6.578725265  -0.193562381
  H    1.750235281  -6.382524043   0.592754684
  O    2.184889339  -7.934853462  -0.628862535
  C    3.315794894  -8.827243513  -0.515396053
  H    2.983495412  -9.576525916   0.248946654
  C    3.964358599  -6.638335725   0.376498372
  H    4.604984834  -5.776659766   0.069940780
  C    4.525200057  -7.992167499  -0.092317685
  H    5.246475124  -7.847338788  -0.924874105
  H    5.118663369  -8.478256957   0.708615110
  O    3.950037268  -6.496718628   1.782664696
  O    0.499838917  -5.583513065  -4.086114748
  O    0.370274675  -7.708351570  -2.535052290
  N    3.483337298  -9.520782150  -1.828680277
  C    3.539130482  -8.800689448  -3.097236354
  N    3.754065383  -9.514948314  -4.259230129
  C    3.979963621 -10.868336190  -4.227652964
  C    3.918627674 -11.593487261  -2.976820841
  C    3.667885394 -10.910733017  -1.823502555
  O    3.357793240  -7.592535418  -3.106073833
  N    4.242183210 -11.481296667  -5.411200820
  H    4.447684331 -12.468274781  -5.470733632
  H    4.323753291 -10.936764734  -6.276698635
  H    1.173179281  -1.626294757  -4.203514240
  H    3.609446189 -11.426699936  -0.852512647
  H    4.068774133 -12.674010171  -2.964693834
  H    3.488117098  -7.233593718   2.240692885
  H   -3.615986418  -3.160348746  -4.575428536
  H   -1.915996234  -0.357486941  -0.317585460
  H    1.281647454  -7.997860865  -2.121371048
  H    3.296807851  -8.303388473  -5.637059835
  H   -5.110163451   2.168146455  -4.378827342

