%mem=64gb
%nproc=28       
%Chk=snap_56.chk
# opt b3lyp/6-31g(d,p)  scf=(xqc, tight)  pop=min    

tetra snap_56 

2     1 
  O    1.670888930  -6.522719461  -6.595268626
  C    2.597709604  -5.484119133  -6.941758805
  H    3.108228048  -5.879852862  -7.846746126
  H    3.328414768  -5.368738707  -6.116843665
  C    1.915632894  -4.148287298  -7.265826793
  H    2.643321561  -3.298695861  -7.213079910
  O    1.531933848  -4.156062205  -8.680015936
  C    0.125633055  -4.142188769  -8.837725409
  H   -0.075557209  -3.475763238  -9.714026121
  C    0.634175921  -3.832095474  -6.463783386
  H    0.451225458  -4.590856028  -5.665385220
  C   -0.504216107  -3.748335345  -7.500629205
  H   -0.923306271  -2.719743246  -7.543894244
  H   -1.362870294  -4.390667292  -7.207815045
  O    0.883892128  -2.536048129  -5.880220236
  N   -0.295431822  -5.538403440  -9.238672977
  C   -0.790206589  -5.937148207 -10.499541866
  C   -0.995494157  -7.343514588 -10.432416783
  N   -0.603347084  -7.775283738  -9.147703972
  C   -0.183898066  -6.691751437  -8.447007653
  N   -1.036540404  -5.148599168 -11.589652077
  C   -1.511957888  -5.824225891 -12.689062276
  N   -1.755392341  -7.214441864 -12.702739057
  C   -1.512029112  -8.088504233 -11.554968470
  N   -1.789294344  -5.083093683 -13.811506778
  H   -1.556373827  -4.092738736 -13.822976397
  H   -2.036837951  -5.503618758 -14.695602800
  O   -1.762802915  -9.257823558 -11.676003024
  H    0.247498437  -6.664858022  -7.384025153
  H   -2.129653885  -7.677916288 -13.544368361
  P   -0.088610102  -2.067855467  -4.617648860
  O   -1.348467080  -1.405902754  -5.509994346
  C   -1.248342265   0.012900315  -5.708640796
  H   -2.016015442   0.203033883  -6.487230750
  H   -0.254834715   0.294460591  -6.112343593
  C   -1.554885209   0.768027400  -4.402147364
  H   -0.726376547   0.674480179  -3.641917583
  O   -1.545510406   2.201408580  -4.705578644
  C   -2.813619356   2.807197779  -4.444310267
  H   -2.598641543   3.680658486  -3.773679239
  C   -2.950465065   0.437900432  -3.822846700
  H   -3.447975508  -0.408387948  -4.351922841
  C   -3.757198269   1.749509275  -3.880427692
  H   -4.078728420   2.013049867  -2.838912707
  H   -4.696764436   1.622443480  -4.447044050
  O   -2.845281186   0.174055083  -2.411512011
  O    0.570782724  -1.110133676  -3.718409688
  O   -0.510488268  -3.573324358  -4.168260283
  N   -3.267569162   3.350775772  -5.774046918
  C   -2.442193731   3.632538927  -6.855355995
  C   -3.271076758   4.199340741  -7.878539197
  N   -4.592489577   4.273909993  -7.416948875
  C   -4.585827509   3.781746327  -6.177023701
  N   -1.070433328   3.461606125  -7.038410767
  C   -0.555637404   3.886912773  -8.273655764
  N   -1.282419694   4.404696397  -9.252780676
  C   -2.673306429   4.603536345  -9.114867915
  H    0.539628921   3.768998368  -8.433972178
  N   -3.340488329   5.150204141 -10.143874874
  H   -2.860516327   5.434426620 -10.998717880
  H   -4.343993912   5.328375177 -10.084871304
  H   -5.440313231   3.713589902  -5.508209998
  P   -2.512509068  -1.383649144  -1.975746851
  O   -1.687527435  -1.034070551  -0.626941504
  C   -0.745692809  -2.049145782  -0.173017865
  H   -0.026785731  -2.315807802  -0.971391566
  H   -0.200596860  -1.503069422   0.637762541
  C   -1.600270324  -3.190469955   0.365573550
  H   -2.199388987  -2.871663657   1.253851190
  O   -2.582039155  -3.406144357  -0.714587929
  C   -2.871980716  -4.834807457  -0.871751077
  H   -3.984876234  -4.886527028  -0.770504111
  C   -0.955979732  -4.576133577   0.603092632
  H   -0.032122817  -4.730658614  -0.013795247
  C   -2.094912221  -5.548431149   0.226885356
  H   -1.711768916  -6.551722640  -0.049090893
  H   -2.726122190  -5.738112311   1.127756972
  O   -0.729093085  -4.838582016   1.980845986
  O   -1.861881430  -2.117574823  -3.107306600
  O   -4.030468897  -1.880156304  -1.646385635
  N   -2.496810058  -5.229231268  -2.257545520
  C   -1.255345989  -5.885968043  -2.566753116
  N   -1.102411434  -6.328397595  -3.896561387
  C   -1.977190155  -5.997018306  -4.977911979
  C   -3.184301453  -5.251251521  -4.589295341
  C   -3.404040961  -4.897560870  -3.298952524
  O   -0.381925416  -6.060207305  -1.733583529
  H   -0.208744534  -6.819421260  -4.111549073
  O   -1.638390040  -6.340565273  -6.098546595
  C   -4.124866102  -4.873302957  -5.679914264
  H   -5.170046665  -5.108175388  -5.426755399
  H   -4.066873558  -3.795627484  -5.898801271
  H   -3.904919714  -5.409698310  -6.617957142
  H   -4.288370244  -4.315110408  -2.996691225
  P    0.602270187  -4.239076140   2.768958882
  O    1.843091457  -5.280820752   2.499085584
  C    2.064355616  -5.996260964   1.279228314
  H    2.545910019  -6.936108214   1.643740106
  H    1.133459232  -6.270339512   0.754723301
  C    3.061814144  -5.186845639   0.437706640
  H    3.738084922  -4.599936158   1.107077763
  O    3.955571205  -6.127859637  -0.220847485
  C    3.847128481  -6.033808688  -1.650735130
  H    4.885630375  -6.196370508  -2.028302792
  C    2.431942665  -4.323651257  -0.687693529
  H    1.328878762  -4.505373267  -0.811233339
  C    3.228501860  -4.666849671  -1.948329683
  H    2.591671301  -4.645051644  -2.866725528
  H    4.016950774  -3.917255604  -2.162136552
  O    2.475623438  -2.943439293  -0.333076949
  O    0.367522538  -3.976419778   4.172770449
  O    0.900749841  -2.987520833   1.749385425
  N    2.995701135  -7.210358838  -2.071607362
  C    2.167299487  -7.196327476  -3.260828821
  N    1.374243507  -8.289832374  -3.551070213
  C    1.399454638  -9.392906869  -2.740268260
  C    2.250229908  -9.443955651  -1.576884258
  C    3.020350206  -8.356047970  -1.272555727
  O    2.178605903  -6.204972568  -3.994660818
  N    0.568677949 -10.428580024  -3.070821036
  H    0.586105257 -11.302384762  -2.566736373
  H    0.013360263 -10.395299162  -3.915834302
  H    1.562372003  -6.597397538  -5.593881518
  H    3.687353112  -8.335321251  -0.391180415
  H    2.282982511 -10.336353229  -0.953502463
  H    3.365872738  -2.541511377  -0.474243900
  H   -1.197516547  -3.617726884  -3.393733499
  H   -4.235413714  -2.161804046  -0.703621437
  H    1.794429145  -2.860437783   1.307206087
  H   -0.642756654  -8.741107648  -8.838869617
  H   -0.501047557   3.076016487  -6.264447303

