%mem=64gb
%nproc=28       
%Chk=snap_61.chk
# opt b3lyp/6-31g(d,p)  scf=(xqc, tight)  pop=min    

tetra snap_61 

2     1 
  O    1.090511360  -6.696550532  -6.763451817
  C    2.160341729  -5.773669405  -6.989233504
  H    2.564238213  -6.069847043  -7.981220235
  H    2.934073252  -5.901328440  -6.209832677
  C    1.660451085  -4.320734868  -7.046279546
  H    2.477824231  -3.585919391  -6.855902930
  O    1.281354028  -4.045442372  -8.435711818
  C   -0.124130126  -3.964181796  -8.571266310
  H   -0.297132042  -3.230164730  -9.399448023
  C    0.408030812  -4.023416158  -6.192291892
  H    0.131201538  -4.892486045  -5.547251683
  C   -0.696859925  -3.626883642  -7.196935963
  H   -0.918181724  -2.536042797  -7.132917015
  H   -1.663057741  -4.117233369  -6.960177902
  O    0.775378988  -2.919779821  -5.330088242
  N   -0.631699572  -5.301189885  -9.063980908
  C   -0.713843490  -5.673875181 -10.425900216
  C   -1.064336599  -7.052293138 -10.456009347
  N   -1.168247779  -7.499705969  -9.123625769
  C   -0.897226657  -6.453493680  -8.301200907
  N   -0.538857687  -4.870976830 -11.516876132
  C   -0.700806536  -5.507782633 -12.726728260
  N   -1.022535846  -6.876098929 -12.846997537
  C   -1.241433811  -7.760390776 -11.701042284
  N   -0.562252961  -4.746296635 -13.858851346
  H   -0.282844392  -3.771634881 -13.774596465
  H   -0.601675751  -5.134687184 -14.789833392
  O   -1.528340217  -8.905882016 -11.924144277
  H   -0.885874534  -6.484337506  -7.185736511
  H   -1.124551487  -7.314684357 -13.774846584
  P   -0.389458255  -2.415089774  -4.265467752
  O   -1.144630380  -1.248347887  -5.185420427
  C   -0.799308028   0.117864184  -4.936973072
  H   -0.971251343   0.591390139  -5.926621028
  H    0.266146282   0.241667453  -4.658173618
  C   -1.733609389   0.717261057  -3.868701655
  H   -1.282355388   0.718002829  -2.846342576
  O   -1.847027251   2.147599465  -4.169434739
  C   -3.176048523   2.500148500  -4.558608347
  H   -3.421812388   3.420875675  -3.966763046
  C   -3.170164367   0.136208052  -3.901312558
  H   -3.250238470  -0.762115919  -4.564345517
  C   -4.084576230   1.295495596  -4.338019437
  H   -4.824492654   1.493636117  -3.519122310
  H   -4.700636546   1.010358265  -5.208945733
  O   -3.630598241  -0.171740440  -2.574530048
  O    0.248531286  -1.952086830  -3.015845917
  O   -1.395265179  -3.669963270  -4.490256846
  N   -3.082427605   2.898058292  -6.010138753
  C   -1.942859196   3.363726641  -6.655174016
  C   -2.329297852   3.705263529  -7.992751578
  N   -3.697738425   3.453266997  -8.160289378
  C   -4.138720077   2.985177514  -6.991674111
  N   -0.629191825   3.523283623  -6.214014383
  C    0.274665884   4.060771616  -7.147386443
  N   -0.036706416   4.390698245  -8.391276587
  C   -1.350556844   4.246209160  -8.887025268
  H    1.325205612   4.209532949  -6.809005675
  N   -1.598237529   4.618366646 -10.152857119
  H   -0.868552561   5.014529755 -10.746721542
  H   -2.538320241   4.552219301 -10.545178237
  H   -5.164435921   2.709683728  -6.758857969
  P   -3.068663919  -1.580245059  -1.907266787
  O   -2.274737521  -0.931993035  -0.653876247
  C   -1.146323642  -1.733746775  -0.184978547
  H   -0.436255743  -1.932958415  -1.019227276
  H   -0.657846944  -1.051483172   0.550126448
  C   -1.735637723  -2.974675491   0.469424223
  H   -2.245188631  -2.740990119   1.434543076
  O   -2.811701326  -3.405460368  -0.447008750
  C   -2.884817642  -4.874723932  -0.484286508
  H   -3.944168505  -5.080091372  -0.191269103
  C   -0.820065909  -4.217414678   0.592304984
  H   -0.055970376  -4.263907735  -0.228864979
  C   -1.836793112  -5.375031428   0.504805188
  H   -1.356073470  -6.335717557   0.230368179
  H   -2.271198699  -5.567927418   1.512401852
  O   -0.232211757  -4.309189946   1.880545951
  O   -2.281760949  -2.318239095  -2.948795645
  O   -4.498949526  -2.217204584  -1.481643634
  N   -2.680090159  -5.321765701  -1.890456098
  C   -1.411275956  -5.796241934  -2.372376595
  N   -1.387533196  -6.296721350  -3.691496769
  C   -2.464571285  -6.209586640  -4.622270567
  C   -3.720280967  -5.681552446  -4.058352941
  C   -3.793802414  -5.273100346  -2.766372937
  O   -0.403488806  -5.792150748  -1.687138638
  H   -0.460295436  -6.668970616  -4.015812855
  O   -2.251836577  -6.544600310  -5.775982686
  C   -4.889628602  -5.630318909  -4.977820426
  H   -5.470524876  -6.568410962  -4.934498879
  H   -5.581876198  -4.808395978  -4.748610706
  H   -4.574178978  -5.510410636  -6.027734822
  H   -4.724079380  -4.866503721  -2.340143421
  P    1.174560326  -3.462363956   2.178327029
  O    2.398816166  -4.510707639   1.877454176
  C    2.436310794  -5.388154963   0.744155589
  H    3.065333313  -6.230607621   1.123707444
  H    1.446121788  -5.793025005   0.477228930
  C    3.168481160  -4.665217253  -0.392912113
  H    3.889924558  -3.910439149   0.014884827
  O    4.025732981  -5.646678277  -1.047427485
  C    3.707755168  -5.764523457  -2.441584937
  H    4.693152850  -5.887530158  -2.952769255
  C    2.273703505  -4.060457019  -1.500890574
  H    1.194362226  -4.347454191  -1.423253886
  C    2.915227218  -4.515879059  -2.817905072
  H    2.170074931  -4.668763343  -3.628891729
  H    3.595253713  -3.724965696  -3.201824556
  O    2.393908003  -2.637092517  -1.338945782
  O    1.238710447  -2.870666171   3.499844614
  O    1.094885248  -2.472521121   0.874752929
  N    2.959348961  -7.077446700  -2.561732112
  C    1.847786466  -7.303609080  -3.454450297
  N    1.244166458  -8.538968119  -3.512011060
  C    1.691094200  -9.556879665  -2.707802358
  C    2.781074826  -9.351385325  -1.784748077
  C    3.379439940  -8.123427572  -1.732271378
  O    1.452958180  -6.376001816  -4.179101551
  N    1.053487021 -10.759894131  -2.814125371
  H    1.345059647 -11.566373752  -2.283524628
  H    0.302613634 -10.890031232  -3.480801000
  H    1.002293774  -6.897465133  -5.780494579
  H    4.211459795  -7.902555605  -1.038628496
  H    3.122758748 -10.161023021  -1.139646370
  H    1.769821358  -2.172107587  -1.988178413
  H   -2.199963898  -3.712833241  -3.826541102
  H   -4.648441405  -2.388522901  -0.496939055
  H    1.887742060  -2.347825964   0.225884370
  H   -1.396862406  -8.454485004  -8.860835321
  H   -0.389271831   3.283045714  -5.237422265

