%mem=64gb
%nproc=28       
%Chk=snap_171.chk
# opt b3lyp/6-31g(d,p)  scf=(xqc, tight)  pop=min    

tetra snap_171 

2     1 
  O    3.401231480  -4.295603755  -4.370235668
  C    3.759173722  -3.047089668  -4.976566662
  H    4.697058274  -3.297016664  -5.521736096
  H    3.988249245  -2.327122629  -4.164374225
  C    2.709183276  -2.481871549  -5.936731737
  H    2.958723018  -1.427393413  -6.229201462
  O    2.779963129  -3.193078189  -7.208069347
  C    1.586748837  -3.921737047  -7.466650760
  H    1.311293628  -3.691338143  -8.527987567
  C    1.247594720  -2.586998589  -5.444639758
  H    1.171415851  -2.896719474  -4.372854170
  C    0.549163678  -3.563758573  -6.401350294
  H   -0.358760102  -3.113406041  -6.861847119
  H    0.172897828  -4.449622699  -5.837447108
  O    0.747219955  -1.237872014  -5.611985874
  N    1.963861321  -5.379227637  -7.409231823
  C    1.745438252  -6.326891469  -8.425780349
  C    2.341265581  -7.545346341  -7.985089214
  N    2.914399616  -7.310926719  -6.718853391
  C    2.685482529  -6.022277027  -6.383751012
  N    1.079250374  -6.150043450  -9.608942200
  C    1.012955678  -7.265742539 -10.403383825
  N    1.604248226  -8.506069812 -10.054917241
  C    2.311777015  -8.725416740  -8.805297001
  N    0.310920535  -7.170252775 -11.577499989
  H   -0.084738294  -6.272593067 -11.850785535
  H    0.284522110  -7.909707542 -12.264019612
  O    2.772041586  -9.831106746  -8.617632111
  H    3.029143182  -5.469436587  -5.434811347
  H    1.546544065  -9.315962996 -10.689833348
  P   -0.616535604  -0.871877682  -4.773530825
  O   -0.928702384   0.602412700  -5.461285037
  C   -0.370548663   1.767664533  -4.804910813
  H   -0.062274968   2.414584392  -5.660955141
  H    0.524932996   1.509689772  -4.200728609
  C   -1.430419535   2.456557558  -3.951978264
  H   -0.944270650   3.061749244  -3.145161301
  O   -2.137285438   3.417712915  -4.809781269
  C   -3.495320965   3.569724095  -4.358900182
  H   -3.630150983   4.656397171  -4.135924944
  C   -2.570372972   1.582905838  -3.371116622
  H   -2.900959723   0.784466409  -4.085189231
  C   -3.709034850   2.600005523  -3.186594540
  H   -3.634293011   3.104892840  -2.199711121
  H   -4.712896341   2.121475058  -3.179055401
  O   -2.110361473   1.054540405  -2.130387163
  O   -0.347699307  -0.844707671  -3.303053143
  O   -1.682244946  -1.740176855  -5.607404163
  N   -4.384592350   3.228624749  -5.516678569
  C   -4.351951248   2.109742750  -6.343566020
  C   -5.598593203   2.072236318  -7.052464032
  N   -6.382987874   3.172545773  -6.675755440
  C   -5.674474503   3.841260043  -5.768137530
  N   -3.380198083   1.138584561  -6.567960707
  C   -3.718012694   0.090539194  -7.428004594
  N   -4.889418395  -0.030745593  -8.042404968
  C   -5.878154008   0.967960217  -7.914971335
  H   -2.946619773  -0.703320653  -7.574870556
  N   -7.024710554   0.819637235  -8.603850828
  H   -7.182283667   0.016184712  -9.206944605
  H   -7.769513345   1.512888060  -8.531879522
  H   -5.977873941   4.753603882  -5.261417770
  P   -2.275178028  -0.603538482  -2.030965987
  O   -1.148681003  -1.003110652  -0.934630114
  C   -0.522537632  -2.299098654  -1.079159593
  H    0.144838053  -2.305764795  -1.966514392
  H    0.111636116  -2.333713243  -0.164562450
  C   -1.591092229  -3.396386120  -1.079482297
  H   -1.585181637  -3.975873426  -0.125103857
  O   -2.870655396  -2.694265257  -1.148639145
  C   -3.894044418  -3.617804464  -1.698721677
  H   -4.465650470  -3.962139362  -0.800380139
  C   -1.642784129  -4.353516441  -2.296620892
  H   -1.251353693  -3.909411260  -3.240786160
  C   -3.126281930  -4.738323117  -2.402487788
  H   -3.437356338  -4.899895591  -3.460110825
  H   -3.297291411  -5.723841607  -1.911433878
  O   -0.951991944  -5.570696478  -1.923267324
  O   -2.573636297  -1.159177140  -3.416972136
  O   -3.628401394  -0.529914825  -1.090440675
  N   -4.788599667  -2.787057303  -2.540580239
  C   -4.432816868  -2.465468977  -3.885031592
  N   -5.067701501  -1.346063548  -4.472195505
  C   -5.860250529  -0.393362302  -3.744534806
  C   -6.285864939  -0.856572789  -2.417476446
  C   -5.721924734  -1.951651889  -1.851914596
  O   -3.697132713  -3.175333703  -4.572141386
  H   -4.777518151  -1.101713469  -5.422716596
  O   -6.057385290   0.674402666  -4.291620791
  C   -7.334750013  -0.048968054  -1.738717003
  H   -7.291205669   1.012469079  -2.036641417
  H   -8.346132630  -0.404340024  -2.000354102
  H   -7.252786886  -0.071571065  -0.642628854
  H   -5.972600339  -2.272395651  -0.832141446
  P    0.555783551  -5.728612842  -2.529883835
  O    1.479993732  -5.262804538  -1.254631831
  C    2.870730836  -5.670331299  -1.270093384
  H    3.273099920  -5.835250486  -2.295655445
  H    3.373013617  -4.778430424  -0.827868282
  C    3.035523385  -6.886340247  -0.355551242
  H    2.388250757  -6.803432153   0.557955569
  O    2.532030211  -8.087514606  -1.019852562
  C    3.512774920  -9.142896793  -1.016968256
  H    3.067589333  -9.933439049  -0.359631092
  C    4.514142693  -7.158519481   0.021104665
  H    5.225585299  -6.394486990  -0.357546582
  C    4.837635381  -8.567202282  -0.507000788
  H    5.614451765  -8.531908886  -1.296417237
  H    5.262520452  -9.198889427   0.300546508
  O    4.497200004  -7.126024114   1.447689950
  O    0.833579335  -4.843842808  -3.705951666
  O    0.671774243  -7.313951889  -2.750549693
  N    3.598008227  -9.669138956  -2.418996470
  C    3.572507948  -8.784783404  -3.577986394
  N    3.641709186  -9.345717173  -4.838045176
  C    3.775025815 -10.702176702  -5.006149472
  C    3.846829866 -11.580764664  -3.860235240
  C    3.747474525 -11.047552622  -2.607566323
  O    3.444985242  -7.581235781  -3.397316855
  N    3.835116036 -11.164799326  -6.282940717
  H    3.901023862 -12.150416854  -6.494197642
  H    3.711347110 -10.532577416  -7.079903259
  H    2.487782525  -4.251482752  -3.928701651
  H    3.785289794 -11.682527612  -1.708889775
  H    3.972879657 -12.655289595  -4.000681355
  H    5.402751667  -7.160014131   1.826929856
  H   -2.497014960  -2.154920000  -5.084833451
  H   -3.514232067  -0.774402457  -0.128440254
  H    1.598450148  -7.741329172  -2.519158915
  H    3.365149248  -8.054226326  -6.120409337
  H   -2.422031412   1.237982607  -6.157728172

