%mem=64gb
%nproc=28       
%Chk=snap_131.chk
# opt b3lyp/6-31g(d,p)  scf=(xqc, tight)  pop=min    

tetra snap_131 

2     1 
  O    1.866367502  -4.262851978  -5.851403488
  C    2.259119543  -3.028655694  -6.475356524
  H    3.247300985  -3.133181908  -6.962348958
  H    2.320352661  -2.307843526  -5.634675020
  C    1.188044179  -2.597993943  -7.478720809
  H    1.258520011  -1.515279150  -7.730274956
  O    1.439668721  -3.272587384  -8.750909809
  C    0.342647763  -4.133950094  -9.079716036
  H    0.294671721  -4.144910000 -10.194184151
  C   -0.247654901  -3.006287285  -7.050278752
  H   -0.222901545  -3.748108644  -6.209269379
  C   -0.870126675  -3.578801741  -8.330634116
  H   -1.362422736  -2.771369916  -8.916581205
  H   -1.691761931  -4.304085052  -8.150198010
  O   -0.949089878  -1.797059652  -6.701854923
  N    0.756356660  -5.499414702  -8.603212587
  C   -0.010492203  -6.487722371  -7.988805326
  C    0.893520832  -7.523081899  -7.597105746
  N    2.207879337  -7.153642015  -7.931973363
  C    2.117728260  -5.960265848  -8.528432253
  N   -1.373923528  -6.520610827  -7.782707741
  C   -1.855282152  -7.676310216  -7.253266555
  N   -1.033598357  -8.774276194  -6.896785667
  C    0.413145283  -8.743740078  -7.022991249
  N   -3.206471564  -7.715237735  -6.942465110
  H   -3.773496126  -6.913362081  -7.263277793
  H   -3.700830223  -8.596252095  -6.894886229
  O    1.012237267  -9.724808298  -6.615957488
  H    2.936783307  -5.370889288  -8.934491557
  H   -1.444604843  -9.637694995  -6.517508780
  P   -1.437619353  -1.701133167  -5.122900290
  O   -0.953813287  -0.119447854  -4.942287677
  C   -0.079173933   0.261485352  -3.864560159
  H    0.788877377   0.738877935  -4.378389363
  H    0.270025011  -0.616744778  -3.281445213
  C   -0.790957195   1.284256288  -2.980737391
  H   -0.294859122   1.339874511  -1.976582021
  O   -0.581788916   2.599653521  -3.591841404
  C   -1.715564844   3.448915110  -3.356693164
  H   -1.326717005   4.335947329  -2.795911891
  C   -2.330576641   1.163276456  -2.824980439
  H   -2.830198541   0.686820800  -3.700921963
  C   -2.783655454   2.618068847  -2.634519945
  H   -2.829222791   2.855141820  -1.544231446
  H   -3.814937531   2.796555369  -2.990869737
  O   -2.644187176   0.469739804  -1.614728320
  O   -0.828317214  -2.719935228  -4.245991752
  O   -2.997617590  -1.447834684  -5.506073307
  N   -2.193693587   3.930051439  -4.688832072
  C   -2.483956082   3.208111448  -5.843315552
  C   -3.057436658   4.131550878  -6.778725488
  N   -3.105319921   5.411235827  -6.205529451
  C   -2.596677907   5.291861745  -4.981774239
  N   -2.319340261   1.870501543  -6.177863243
  C   -2.741184705   1.479165474  -7.455946460
  N   -3.291364667   2.292752726  -8.348733748
  C   -3.471100952   3.661667085  -8.066074779
  H   -2.609547432   0.401783666  -7.716580144
  N   -4.022621181   4.440754289  -9.013004450
  H   -4.300438206   4.063461174  -9.917450547
  H   -4.168826493   5.437010131  -8.852211439
  H   -2.471879238   6.090879775  -4.254514878
  P   -2.676126715  -1.187626506  -1.765085041
  O   -1.270352832  -1.425870894  -0.977914204
  C   -0.661350921  -2.740112330  -1.100832332
  H   -0.524545817  -3.007324265  -2.181453548
  H    0.333075050  -2.605643079  -0.621793427
  C   -1.577097404  -3.697990139  -0.352891821
  H   -1.648762179  -3.475931154   0.737852889
  O   -2.902349867  -3.355361778  -0.888857813
  C   -3.543257923  -4.525099446  -1.486198403
  H   -4.588451710  -4.457017036  -1.092236063
  C   -1.366994114  -5.202402935  -0.620743718
  H   -0.599329137  -5.410865511  -1.413193451
  C   -2.756395534  -5.738828084  -0.999997424
  H   -2.691467633  -6.561946683  -1.737757518
  H   -3.231775107  -6.201824119  -0.101978894
  O   -1.056997244  -5.834681417   0.641993485
  O   -2.725692863  -1.550224186  -3.222413448
  O   -4.053952240  -1.409027519  -0.943070837
  N   -3.560511378  -4.367297163  -2.961401391
  C   -2.465908308  -4.784065242  -3.796712176
  N   -2.766264274  -4.858341919  -5.177521340
  C   -4.016741670  -4.483232344  -5.782748311
  C   -4.939500130  -3.785506880  -4.871701186
  C   -4.704249192  -3.757368769  -3.537357434
  O   -1.385643287  -5.137466855  -3.365585704
  H   -2.049999709  -5.290048936  -5.784738076
  O   -4.175978596  -4.786242637  -6.945828179
  C   -6.148542277  -3.175248633  -5.488105888
  H   -6.555342083  -2.334327854  -4.911338629
  H   -5.946953399  -2.802218448  -6.507224948
  H   -6.957014291  -3.921293830  -5.592548031
  H   -5.396402834  -3.272755036  -2.832318262
  P    0.512292255  -6.229535977   0.892573574
  O    0.871741561  -6.668562886  -0.660811730
  C    2.249015842  -6.840441214  -1.020509792
  H    2.842919775  -7.311659523  -0.209426101
  H    2.185541133  -7.554497770  -1.867752980
  C    2.835381437  -5.484755610  -1.432893665
  H    2.798084981  -4.723595307  -0.613754481
  O    4.268298660  -5.760606997  -1.641621566
  C    4.672977280  -5.358356703  -2.946492919
  H    5.730661548  -5.019879602  -2.864340988
  C    2.317589935  -4.879155587  -2.766440391
  H    1.774559677  -5.610250453  -3.401029580
  C    3.623288478  -4.369433810  -3.419731376
  H    3.533109386  -4.241414827  -4.516190739
  H    3.849060595  -3.343650023  -3.051607445
  O    1.465061200  -3.782367175  -2.476740036
  O    0.829307913  -7.125756430   1.992034911
  O    1.228456600  -4.735742807   0.952547779
  N    4.663918121  -6.663033511  -3.770685742
  C    4.255796100  -6.670839177  -5.138980941
  N    3.853953111  -7.933487354  -5.678916344
  C    3.965994284  -9.130472701  -4.967628993
  C    4.611693040  -9.071062932  -3.683834456
  C    4.905682554  -7.867711906  -3.105675959
  O    4.208560056  -5.691597221  -5.850758469
  N    3.466402884 -10.262679688  -5.508772468
  H    3.511165193 -11.152495055  -5.018357845
  H    2.832930851 -10.236332773  -6.330318256
  H    2.383155094  -5.014972155  -6.222475780
  H    5.324999711  -7.784615292  -2.082956296
  H    4.866283017 -10.004028390  -3.168830646
  H    0.683576432  -3.783748993  -3.122014322
  H   -3.675213810  -1.667714943  -4.761371800
  H   -4.005989362  -1.857369069  -0.039792435
  H    1.586516691  -4.429062342   1.827702595
  H    3.445784475  -7.896997456  -6.671486068
  H   -1.809967957   1.209553266  -5.538736567

