%mem=64gb
%nproc=28       
%Chk=snap_118.chk
# opt b3lyp/6-31g(d,p)  scf=(xqc, tight)  pop=min    

tetra snap_118 

2     1 
  O    3.116229867  -4.569926480  -7.377182045
  C    2.971589175  -3.153869387  -7.361326443
  H    3.648844769  -2.834897853  -8.185355978
  H    3.355818433  -2.747553487  -6.406038352
  C    1.537052945  -2.677020824  -7.625532080
  H    1.512590911  -1.578184374  -7.840483286
  O    1.057430837  -3.266450760  -8.875073572
  C    0.022943789  -4.205266940  -8.627026557
  H   -0.684809534  -4.122751035  -9.488748924
  C    0.494603377  -3.039312062  -6.540112501
  H    0.938040246  -3.539494052  -5.641328110
  C   -0.545941154  -3.926374378  -7.238217477
  H   -1.539703699  -3.425263038  -7.308791095
  H   -0.743661379  -4.850320463  -6.651175494
  O   -0.055941082  -1.754224057  -6.170214232
  N    0.666481191  -5.575694432  -8.710159729
  C    0.131729113  -6.794581819  -8.241127590
  C    1.101222643  -7.800442493  -8.517385579
  N    2.225484796  -7.172332175  -9.080777756
  C    1.963807116  -5.838463801  -9.179125179
  N   -1.090410884  -7.000103632  -7.669180370
  C   -1.364501377  -8.308836554  -7.347705664
  N   -0.461181728  -9.370048367  -7.584049604
  C    0.874364886  -9.171104458  -8.127815671
  N   -2.568984049  -8.557508717  -6.741805899
  H   -3.242484182  -7.774741076  -6.668457914
  H   -2.937123248  -9.490816733  -6.625664779
  O    1.590878908 -10.142136496  -8.212131514
  H    2.639274757  -5.055365271  -9.548660612
  H   -0.688285876 -10.326092128  -7.277694604
  P   -0.967827993  -1.725606218  -4.786547076
  O   -1.153335738  -0.069718577  -4.789601637
  C   -0.443007048   0.628894448  -3.735790787
  H    0.224096618   1.346896084  -4.266503507
  H    0.187936641  -0.050218847  -3.121973133
  C   -1.465695352   1.373820201  -2.872055054
  H   -1.228004551   1.275744676  -1.779893785
  O   -1.272545342   2.792764149  -3.147775058
  C   -2.520535446   3.463807164  -3.343878651
  H   -2.534063164   4.305065059  -2.603251330
  C   -2.962130929   1.065861929  -3.153982579
  H   -3.131986204   0.488577261  -4.094773885
  C   -3.645871737   2.440011536  -3.187226543
  H   -4.200165917   2.589846527  -2.225996559
  H   -4.430469461   2.511620256  -3.962600957
  O   -3.539600138   0.365511996  -2.044457270
  O   -0.232746406  -2.279558825  -3.630153024
  O   -2.315662751  -2.327988994  -5.456573097
  N   -2.453311047   4.068911381  -4.710247673
  C   -2.153708462   3.473914105  -5.933566231
  C   -2.057891379   4.534556049  -6.894976229
  N   -2.286802324   5.766685004  -6.264659253
  C   -2.506968164   5.492731326  -4.982174233
  N   -1.981866877   2.148482292  -6.324664367
  C   -1.661194732   1.928875904  -7.675726769
  N   -1.556098566   2.877518235  -8.593629312
  C   -1.742958408   4.236221818  -8.258338806
  H   -1.496944375   0.869168654  -7.977947532
  N   -1.608241691   5.159706264  -9.223829708
  H   -1.381001136   4.899971420 -10.182962836
  H   -1.731745386   6.153610919  -9.021491088
  H   -2.720061987   6.215128775  -4.196787600
  P   -3.133836138  -1.244129240  -1.934524416
  O   -2.003421494  -1.029175739  -0.782722257
  C   -1.042592140  -2.105500850  -0.603252643
  H   -0.515445509  -2.318351866  -1.568016333
  H   -0.320569526  -1.669279245   0.121064864
  C   -1.805247776  -3.294875053  -0.037016216
  H   -2.112796525  -3.149051529   1.026126753
  O   -3.056566153  -3.290365347  -0.811143436
  C   -3.397366715  -4.646253711  -1.259523567
  H   -4.455973801  -4.762078854  -0.913970849
  C   -1.185801602  -4.691149193  -0.254785980
  H   -0.425793670  -4.700560975  -1.087706706
  C   -2.404463659  -5.579013353  -0.579756755
  H   -2.116050259  -6.474589801  -1.177468328
  H   -2.836392991  -6.013397287   0.350143825
  O   -0.573463250  -5.031542563   0.989839708
  O   -2.677251511  -1.745051092  -3.274012068
  O   -4.596059861  -1.757587802  -1.452339219
  N   -3.372334680  -4.667610245  -2.744987601
  C   -2.254446201  -5.174988467  -3.491163204
  N   -2.537831569  -5.532663108  -4.831932797
  C   -3.816691788  -5.377584034  -5.470374747
  C   -4.759830911  -4.523817432  -4.729219662
  C   -4.542689534  -4.237264832  -3.422814751
  O   -1.146707411  -5.329778645  -3.020476561
  H   -1.787283628  -6.012858790  -5.363609027
  O   -3.992070417  -5.962874044  -6.518549529
  C   -5.959992373  -4.046975678  -5.467798488
  H   -6.893737525  -4.441607829  -5.033158054
  H   -6.035592266  -2.950048142  -5.474740977
  H   -5.953925129  -4.376869212  -6.522952425
  H   -5.260729231  -3.652849994  -2.823040468
  P    0.347942392  -6.421214785   0.967467310
  O    1.834861027  -5.823250665   0.601950187
  C    2.427918683  -6.255265291  -0.645950188
  H    3.330581956  -6.832644045  -0.347393032
  H    1.765238173  -6.907647366  -1.249582333
  C    2.833627102  -4.961473234  -1.364220311
  H    3.328981515  -4.240577207  -0.666606717
  O    3.875960459  -5.324165477  -2.321213776
  C    3.407175524  -5.199319155  -3.670344159
  H    4.294339841  -4.837949351  -4.245609340
  C    1.715371830  -4.277149937  -2.178082284
  H    0.711156225  -4.770448036  -2.088147250
  C    2.216398023  -4.247331255  -3.632541869
  H    1.394395946  -4.500516860  -4.343229026
  H    2.542591080  -3.217548228  -3.888056703
  O    1.608158828  -2.959760798  -1.633549130
  O   -0.161413868  -7.487830285   0.101576634
  O    0.470124751  -6.645651802   2.564284308
  N    3.097904623  -6.608168406  -4.135965352
  C    2.119063980  -6.938588109  -5.167750017
  N    2.004521824  -8.243550175  -5.585300849
  C    2.764180292  -9.232208265  -5.003992718
  C    3.700009197  -8.931239558  -3.951224040
  C    3.851388229  -7.632117718  -3.556616715
  O    1.471269479  -6.013263696  -5.668537629
  N    2.592303701 -10.508616512  -5.460403660
  H    3.187913921 -11.263165902  -5.148138492
  H    2.025678136 -10.686761679  -6.287269470
  H    2.620852766  -5.010916454  -6.627965608
  H    4.574645711  -7.339899907  -2.771960284
  H    4.282254688  -9.725218334  -3.483805140
  H    1.001339562  -2.409765712  -2.207344440
  H   -3.060060954  -2.594085686  -4.789526046
  H   -4.717299229  -1.960651367  -0.470260435
  H    0.926780119  -5.931881749   3.103835646
  H    3.081846251  -7.658387051  -9.328349458
  H   -1.971083658   1.368349375  -5.637395521

