%mem=64gb
%nproc=28       
%Chk=snap_147.chk
# opt b3lyp/6-31g(d,p)  scf=(xqc, tight)  pop=min    

tetra snap_147 

2     1 
  O    1.682664307  -4.488624087  -5.173479069
  C    2.252898106  -3.360538450  -5.878788147
  H    3.197395261  -3.660465542  -6.375132865
  H    2.452990039  -2.573101699  -5.126272698
  C    1.213950939  -2.897716673  -6.905456140
  H    1.327152100  -1.809745522  -7.134984143
  O    1.505454050  -3.529333849  -8.189351591
  C    0.461520839  -4.409247290  -8.591287660
  H    0.337445951  -4.253471732  -9.693304173
  C   -0.250465427  -3.259370670  -6.547261813
  H   -0.326190288  -3.773668562  -5.549650521
  C   -0.759271914  -4.126078120  -7.710938213
  H   -1.535873714  -3.563917796  -8.280911986
  H   -1.272811491  -5.039780380  -7.359178768
  O   -1.000042959  -2.024163684  -6.590671536
  N    0.985168398  -5.806954819  -8.385166542
  C    1.281315528  -6.760878659  -9.379780030
  C    1.931462639  -7.848024145  -8.720296987
  N    2.044402455  -7.524362776  -7.355828277
  C    1.488757506  -6.311491739  -7.167972174
  N    1.005072551  -6.701235531 -10.716989279
  C    1.418111108  -7.794236248 -11.441144084
  N    2.064301788  -8.915878657 -10.861141037
  C    2.359603180  -9.015436095  -9.442739641
  N    1.183980762  -7.784138824 -12.789756077
  H    0.719448095  -6.982214497 -13.214028446
  H    1.454287758  -8.537466149 -13.405447556
  O    2.904826433 -10.021854710  -9.045149595
  H    1.437437708  -5.715764270  -6.186850540
  H    2.352257785  -9.717349343 -11.442491631
  P   -1.641808378  -1.541063918  -5.138959764
  O   -1.291149087   0.082538560  -5.259909201
  C   -0.230250517   0.632827444  -4.456326864
  H    0.476790200   1.071864893  -5.199319547
  H    0.285025800  -0.145668711  -3.855641916
  C   -0.793980733   1.737725224  -3.559612513
  H   -0.159994126   1.867021069  -2.644744379
  O   -0.663619123   2.997136906  -4.291918257
  C   -1.802794090   3.840509285  -4.070980806
  H   -1.392293219   4.812909538  -3.696052721
  C   -2.294785455   1.649398680  -3.184088823
  H   -2.896860408   1.081506067  -3.944020328
  C   -2.749458018   3.110430664  -3.110171834
  H   -2.652086008   3.490108836  -2.064604136
  H   -3.823672171   3.241486754  -3.342324472
  O   -2.412297699   1.075720696  -1.866293660
  O   -1.057089438  -2.346515395  -4.051515345
  O   -3.174917074  -1.405654589  -5.664953248
  N   -2.423091828   4.096356296  -5.406240955
  C   -2.941778978   3.205935126  -6.345193169
  C   -3.426790579   3.996549198  -7.439442052
  N   -3.188431081   5.355458959  -7.182948757
  C   -2.593525988   5.411099757  -5.994948506
  N   -3.072909009   1.822145555  -6.363160133
  C   -3.671494590   1.255247543  -7.500287045
  N   -4.139443800   1.947927927  -8.529902579
  C   -4.038845176   3.353092517  -8.561718147
  H   -3.764744532   0.140271808  -7.503492105
  N   -4.520843321   4.006194465  -9.634049462
  H   -4.952757471   3.509378447 -10.410869146
  H   -4.471234166   5.023193770  -9.692887552
  H   -2.259972937   6.311128740  -5.483127987
  P   -2.726653769  -0.538232542  -1.923384503
  O   -1.468925727  -1.203330026  -1.137401427
  C   -1.352400534  -2.646388433  -1.312946427
  H   -1.819732121  -3.009710540  -2.260005766
  H   -0.249900491  -2.782445759  -1.430681389
  C   -1.851453315  -3.362319676  -0.055375654
  H   -1.321506368  -3.018371492   0.867448512
  O   -3.245090965  -3.040692463   0.228680462
  C   -4.110371806  -4.196935299   0.071619436
  H   -4.794457090  -4.147792397   0.954170739
  C   -1.788080492  -4.904987421  -0.234853161
  H   -1.412991357  -5.208692073  -1.244826226
  C   -3.210252493  -5.426261189   0.033231222
  H   -3.520908708  -6.172835923  -0.732266385
  H   -3.249607042  -5.979506649   0.999244971
  O   -0.890621052  -5.337313499   0.804616042
  O   -2.931237475  -0.963461407  -3.357450000
  O   -4.008725559  -0.708296158  -0.969157798
  N   -4.888593843  -3.922061489  -1.173999658
  C   -4.286177806  -4.120172213  -2.458409635
  N   -4.813970061  -3.340060553  -3.512263328
  C   -5.805092305  -2.309019153  -3.363411092
  C   -6.525645451  -2.356399839  -2.078553193
  C   -6.052632936  -3.107262505  -1.055459832
  O   -3.362323914  -4.886197244  -2.654976612
  H   -4.365046287  -3.451838291  -4.432383674
  O   -5.898724694  -1.519767890  -4.282563830
  C   -7.766295316  -1.542915593  -1.984755982
  H   -7.707858908  -0.636525890  -2.613134635
  H   -8.645712731  -2.111702984  -2.334461035
  H   -7.984537271  -1.203306722  -0.961465224
  H   -6.547755197  -3.135757730  -0.074253550
  P   -0.022583352  -6.713012427   0.507328017
  O    0.690696642  -6.250717800  -0.909199118
  C    1.773516804  -7.078912980  -1.381286774
  H    1.626519007  -8.154649384  -1.153636912
  H    1.723168752  -6.940477490  -2.483010524
  C    3.080311125  -6.544781661  -0.775085334
  H    3.020669732  -6.448229123   0.337778408
  O    4.096878011  -7.562094774  -0.973647132
  C    5.019635235  -7.179863001  -1.997360901
  H    6.019670802  -7.483057277  -1.595388778
  C    3.597197403  -5.252062140  -1.458599829
  H    2.830242520  -4.774159156  -2.109401399
  C    4.873672808  -5.675566379  -2.219910527
  H    4.817970184  -5.394069988  -3.289464909
  H    5.756822350  -5.126694387  -1.834151597
  O    3.854379293  -4.226885910  -0.516363075
  O   -0.702255260  -7.999524041   0.487062776
  O    1.155579335  -6.458986477   1.615937446
  N    4.724114232  -8.057867548  -3.190482522
  C    3.839177947  -7.688751632  -4.281361405
  N    3.628846611  -8.598797105  -5.307859213
  C    4.193109289  -9.851663901  -5.274214508
  C    4.988233477 -10.261144773  -4.143328316
  C    5.218584997  -9.368144612  -3.136486173
  O    3.307280162  -6.584808442  -4.290529168
  N    3.958783492 -10.672287273  -6.335050649
  H    4.344874684 -11.605549334  -6.382478491
  H    3.436621790 -10.354231620  -7.154404149
  H    2.383691133  -4.962662628  -4.634886502
  H    5.809943754  -9.645567704  -2.247168811
  H    5.392852357 -11.272822169  -4.092827321
  H    4.502003625  -4.497999095   0.170821072
  H   -3.919347010  -1.425121830  -4.946192376
  H   -4.038483691  -1.590920124  -0.418767637
  H    1.022264174  -5.728972005   2.280913891
  H    2.569171966  -8.097171948  -6.622149112
  H   -2.607980781   1.210337589  -5.644766190

