%mem=64gb
%nproc=28       
%Chk=snap_187.chk
# opt b3lyp/6-31g(d,p)  scf=(xqc, tight)  pop=min    

tetra snap_187 

2     1 
  O    2.850393683  -4.136998032  -4.832306132
  C    2.952491087  -3.037000521  -5.741255375
  H    3.920864506  -3.233844420  -6.252978137
  H    3.028327685  -2.103122396  -5.147912014
  C    1.811939060  -2.940390195  -6.760269601
  H    1.779983358  -1.930799441  -7.242838259
  O    2.092054604  -3.825135906  -7.886321535
  C    1.152395924  -4.886937812  -7.962890724
  H    0.885268514  -4.976421261  -9.048915422
  C    0.428386554  -3.347383430  -6.207471755
  H    0.464530409  -3.546945711  -5.104563534
  C    0.001465102  -4.590338138  -7.002030300
  H   -0.944975606  -4.393120206  -7.552891579
  H   -0.242595671  -5.428985652  -6.310911720
  O   -0.453477717  -2.242841246  -6.533101079
  N    1.898222766  -6.148811829  -7.595336269
  C    2.284541949  -7.150471809  -8.508231923
  C    3.055643487  -8.103175311  -7.777384738
  N    3.149340926  -7.648636852  -6.447568820
  C    2.465984089  -6.483929781  -6.349064016
  N    1.987814710  -7.224184878  -9.841496617
  C    2.517558972  -8.310235107 -10.491633022
  N    3.284150867  -9.307959480  -9.838767237
  C    3.602155061  -9.267463956  -8.420901288
  N    2.280699770  -8.425077673 -11.835604805
  H    1.746932366  -7.701206203 -12.314329849
  H    2.655111230  -9.172737817 -12.400749171
  O    4.259384681 -10.186391970  -7.983540737
  H    2.370763806  -5.830242476  -5.440923897
  H    3.655296172 -10.115582425 -10.361145087
  P   -1.526917157  -1.886054283  -5.330747723
  O   -2.537185123  -0.796543179  -6.030060316
  C   -1.982446798   0.491479756  -6.367532980
  H   -2.833076682   0.982827126  -6.887105968
  H   -1.155715890   0.379056763  -7.099356404
  C   -1.550394635   1.281434436  -5.124628595
  H   -0.498238275   1.059115298  -4.805722940
  O   -1.509492335   2.676162949  -5.540740615
  C   -2.335231301   3.496358487  -4.712524796
  H   -1.686383970   4.369115399  -4.433249960
  C   -2.520793258   1.194421921  -3.917128204
  H   -3.436620348   0.601409291  -4.143103324
  C   -2.824385951   2.655669217  -3.538440462
  H   -2.241841810   2.899142612  -2.610186829
  H   -3.868153224   2.829230711  -3.225661164
  O   -1.790248682   0.659807979  -2.809121520
  O   -0.720359120  -1.427311440  -4.136096834
  O   -2.348261485  -3.267929859  -5.314145429
  N   -3.420661345   4.035078241  -5.592445781
  C   -4.692892763   3.560421064  -5.902983503
  C   -5.261134843   4.489931590  -6.839136891
  N   -4.329699593   5.497365469  -7.131906564
  C   -3.247456049   5.220685819  -6.410672457
  N   -5.426430787   2.454895762  -5.484964581
  C   -6.751941380   2.364360178  -5.947297886
  N   -7.318694611   3.206026636  -6.798468523
  C   -6.610105649   4.322775133  -7.285876962
  H   -7.347140017   1.504750293  -5.559652724
  N   -7.241567676   5.161631078  -8.125168573
  H   -8.211303839   5.008322811  -8.398853707
  H   -6.769234694   5.983855961  -8.501478660
  H   -2.316860637   5.785292810  -6.397789470
  P   -2.106709832  -0.921185389  -2.426977872
  O   -0.765559486  -1.328578958  -1.605811224
  C   -0.304590382  -2.686007161  -1.767382487
  H    0.115760832  -2.814887299  -2.785164901
  H    0.531595502  -2.724774860  -1.034406059
  C   -1.427827226  -3.662803152  -1.401338284
  H   -1.211785543  -4.185911825  -0.438571176
  O   -2.611640126  -2.836823570  -1.174762784
  C   -3.816341339  -3.686905834  -1.339895019
  H   -4.125825519  -3.945104040  -0.295668264
  C   -1.890002003  -4.677590333  -2.478816919
  H   -1.729520836  -4.353808748  -3.535621266
  C   -3.374694648  -4.902146139  -2.158186615
  H   -3.976389637  -5.072612034  -3.082242001
  H   -3.499247218  -5.849992977  -1.584808567
  O   -1.247287967  -5.955015503  -2.233376775
  O   -2.907279960  -1.623172591  -3.519562813
  O   -3.087080877  -0.551187090  -1.145959151
  N   -4.853984142  -2.795071201  -1.923519895
  C   -4.951354924  -2.621857077  -3.341203314
  N   -5.473567485  -1.387119874  -3.819669971
  C   -5.783693195  -0.287426328  -2.975432649
  C   -5.860671431  -0.598739539  -1.548115193
  C   -5.343914468  -1.761730949  -1.071704518
  O   -4.733375210  -3.529377505  -4.135115018
  H   -5.411310549  -1.243260419  -4.837858161
  O   -5.944136160   0.804069288  -3.518199726
  C   -6.441749126   0.439481768  -0.653946514
  H   -7.162900494   0.018694582   0.063495554
  H   -5.654630533   0.953032162  -0.076523641
  H   -6.980550692   1.217829382  -1.219905987
  H   -5.294182060  -1.974239958   0.005431014
  P    0.282784668  -6.059214079  -2.798481246
  O    1.076366031  -5.204704934  -1.626575775
  C    2.501318369  -5.410745181  -1.503603354
  H    2.983355482  -5.723765119  -2.456614656
  H    2.863816484  -4.388757321  -1.248365123
  C    2.752337356  -6.378712176  -0.345016153
  H    2.016805794  -6.199613731   0.477944897
  O    2.462521199  -7.756468124  -0.742323968
  C    3.609352700  -8.614835961  -0.565310025
  H    3.292127021  -9.333426239   0.232578291
  C    4.225459237  -6.345325896   0.148228848
  H    4.829414839  -5.517197758  -0.296190062
  C    4.800630399  -7.732139604  -0.185729208
  H    5.540733778  -7.654408560  -1.010452415
  H    5.379754581  -8.141634662   0.666705280
  O    4.281190014  -6.033766242   1.526075074
  O    0.543524051  -5.419291436  -4.120488470
  O    0.592250336  -7.626906413  -2.641340756
  N    3.812606342  -9.368430912  -1.842232827
  C    3.754839343  -8.708342829  -3.141167209
  N    4.049359234  -9.435529367  -4.274597689
  C    4.406189261 -10.758637784  -4.192737896
  C    4.443962564 -11.431031086  -2.910985845
  C    4.152965397 -10.726220469  -1.779630395
  O    3.411490826  -7.534267343  -3.190129303
  N    4.713013311 -11.393922234  -5.353262541
  H    4.980381476 -12.367265333  -5.378606052
  H    4.678754079 -10.898987982  -6.251179660
  H    1.952137053  -4.184429520  -4.391874793
  H    4.182121740 -11.199147122  -0.786258416
  H    4.702416491 -12.489826232  -2.860161485
  H    3.863403721  -6.720430275   2.092464136
  H   -3.322566092  -3.243337095  -4.947873645
  H   -2.679557931  -0.652919840  -0.241711899
  H    1.552952432  -7.859768811  -2.297688179
  H    3.630932254  -8.170605175  -5.679264875
  H   -5.093460521   1.785879923  -4.754009422

