%mem=64gb
%nproc=28       
%Chk=snap_153.chk
# opt b3lyp/6-31g(d,p)  scf=(xqc, tight)  pop=min    

tetra snap_153 

2     1 
  O    2.634650596  -4.043051419  -4.814026948
  C    2.908539684  -2.782271471  -5.430757950
  H    3.943187339  -2.903586735  -5.820891935
  H    2.891657204  -1.994554263  -4.651495422
  C    1.935386166  -2.456771789  -6.565634018
  H    1.984072305  -1.376519682  -6.849860665
  O    2.400585683  -3.147845542  -7.770039925
  C    1.393775935  -3.986801250  -8.307468795
  H    1.441044196  -3.847095691  -9.418311629
  C    0.468591488  -2.902469305  -6.337661418
  H    0.352891129  -3.534704507  -5.414657681
  C    0.068683092  -3.653180241  -7.616954857
  H   -0.558461354  -2.988482031  -8.254248362
  H   -0.569325195  -4.532633415  -7.407536038
  O   -0.316460461  -1.696449167  -6.296401215
  N    1.793984617  -5.414167983  -8.018098253
  C    1.675844551  -6.478922453  -8.929062957
  C    2.086202649  -7.657458120  -8.239359016
  N    2.466642847  -7.280461676  -6.935389214
  C    2.289513313  -5.945857088  -6.809388745
  N    1.255085052  -6.418578897 -10.230789469
  C    1.282829606  -7.616711515 -10.898560458
  N    1.657268080  -8.837772142 -10.284191161
  C    2.066958295  -8.938566470  -8.892771772
  N    0.907914180  -7.617953045 -12.216667941
  H    0.661414357  -6.737721857 -12.665617687
  H    0.932419275  -8.441040726 -12.800657474
  O    2.320649845 -10.048300301  -8.476996308
  H    2.513619083  -5.288113117  -5.892684864
  H    1.652185387  -9.720751658 -10.815948955
  P   -1.099081870  -1.443155309  -4.852591400
  O   -1.374788059   0.178227271  -5.123681552
  C   -0.442192673   1.116406344  -4.548070788
  H   -0.041400539   1.685246415  -5.420366210
  H    0.391846105   0.606738377  -4.022273358
  C   -1.207977061   2.051286741  -3.606588420
  H   -0.586696521   2.330819533  -2.718621159
  O   -1.409555857   3.304444323  -4.333298963
  C   -2.733189912   3.813128294  -4.134728042
  H   -2.603498365   4.871126874  -3.790046210
  C   -2.624827690   1.596028394  -3.172487388
  H   -3.067853604   0.845467701  -3.882115914
  C   -3.452448617   2.885632438  -3.150803544
  H   -3.461991325   3.310208217  -2.116920831
  H   -4.521526056   2.717794631  -3.381776923
  O   -2.530382290   1.094266256  -1.823700065
  O   -0.212957349  -1.835049107  -3.736605605
  O   -2.532577193  -2.031380410  -5.292533964
  N   -3.387809659   3.857131310  -5.480111568
  C   -3.594387655   2.847600223  -6.418508892
  C   -4.186960921   3.468109773  -7.568963523
  N   -4.328640771   4.845407430  -7.342525163
  C   -3.852503030   5.072310999  -6.121758805
  N   -3.367342565   1.475221391  -6.399405915
  C   -3.691494459   0.763915609  -7.565080581
  N   -4.244371845   1.295023194  -8.647069367
  C   -4.520419587   2.676109188  -8.712796815
  H   -3.473418031  -0.330000978  -7.553525556
  N   -5.071251128   3.164818922  -9.837791612
  H   -5.283948004   2.562261803 -10.630913648
  H   -5.292429983   4.157135232  -9.926044313
  H   -3.810002835   6.034779145  -5.615781828
  P   -2.654474639  -0.546531363  -1.757599231
  O   -1.592217426  -1.008476528  -0.627330215
  C   -0.860555622  -2.229187844  -0.892942466
  H   -0.448005057  -2.235739417  -1.936219536
  H    0.000496740  -2.108614932  -0.192960285
  C   -1.649041829  -3.500776364  -0.556396078
  H   -1.271101300  -3.949860503   0.397067711
  O   -3.057406843  -3.214504564  -0.306003126
  C   -3.882018161  -4.351046197  -0.719141422
  H   -4.323902850  -4.747164487   0.228278158
  C   -1.661618506  -4.571661462  -1.682615100
  H   -1.581585612  -4.147725135  -2.714158938
  C   -2.977356422  -5.333836614  -1.458034438
  H   -3.406409668  -5.704847586  -2.412448068
  H   -2.785326223  -6.250195550  -0.854738390
  O   -0.608021853  -5.504345570  -1.365134499
  O   -2.562068498  -1.129215688  -3.142613374
  O   -4.093703435  -0.732773242  -1.033425909
  N   -4.962588650  -3.745622850  -1.546500717
  C   -4.722074309  -3.355088109  -2.895189945
  N   -5.662008144  -2.497234355  -3.486833593
  C   -6.848541259  -1.978079978  -2.835597916
  C   -7.075472434  -2.533771654  -1.485691055
  C   -6.168628399  -3.348468498  -0.898431155
  O   -3.739444246  -3.737836507  -3.527385642
  H   -5.482885992  -2.212228065  -4.461285898
  O   -7.492949312  -1.171853015  -3.458845024
  C   -8.343118712  -2.143430861  -0.813135613
  H   -8.962768903  -3.017787871  -0.556732545
  H   -8.161189556  -1.581342167   0.117432259
  H   -8.972470267  -1.493265275  -1.448893198
  H   -6.321558941  -3.757145215   0.110579961
  P    0.629886579  -5.605245333  -2.426073487
  O    1.770258524  -4.801586727  -1.562156274
  C    3.151008108  -5.066111565  -1.913518423
  H    3.282605828  -5.479156486  -2.940674348
  H    3.604253577  -4.047980138  -1.893395748
  C    3.742302080  -5.951753557  -0.815889797
  H    3.387796873  -5.620201107   0.190527113
  O    3.219473383  -7.315078859  -0.899977887
  C    4.261841206  -8.268581689  -1.238798094
  H    4.278713732  -8.963007690  -0.360249875
  C    5.288926868  -6.065570255  -0.910067704
  H    5.757865644  -5.277160068  -1.546068176
  C    5.559580052  -7.487301341  -1.433323921
  H    5.870214341  -7.449513560  -2.502311354
  H    6.418019234  -7.954947183  -0.910998707
  O    5.882719853  -5.813074838   0.348126346
  O    0.405782633  -5.025361615  -3.778010038
  O    0.962456817  -7.181156119  -2.401115823
  N    3.781049629  -9.003859240  -2.441571948
  C    3.645395820  -8.355449601  -3.752155683
  N    3.165341723  -9.112507873  -4.806318043
  C    2.857305259 -10.438768721  -4.654557026
  C    2.990628936 -11.084866100  -3.366398498
  C    3.436223463 -10.356191740  -2.303899319
  O    3.944485681  -7.180061868  -3.870218614
  N    2.409929877 -11.100204971  -5.756478339
  H    2.204257650 -12.088347884  -5.743408452
  H    2.378218704 -10.634375908  -6.669734001
  H    1.719202625  -4.022577234  -4.349965199
  H    3.546947970 -10.808513555  -1.305787055
  H    2.735000777 -12.139190147  -3.254804839
  H    5.648107778  -6.486057128   1.024873337
  H   -3.104655926  -2.471983864  -4.530739730
  H   -4.199299179  -1.641161599  -0.576784037
  H    1.835932775  -7.490616918  -1.932995248
  H    2.819616095  -7.952265655  -6.200630328
  H   -2.835967249   1.007523932  -5.622804445

