%mem=64gb
%nproc=28       
%Chk=snap_114.chk
# opt b3lyp/6-31g(d,p)  scf=(xqc, tight)  pop=min    

tetra snap_114 

2     1 
  O    3.039506708  -4.651885178  -6.922915925
  C    2.993546757  -3.227737516  -6.871315903
  H    3.895091455  -2.932819170  -7.452217402
  H    3.108694384  -2.885882245  -5.819383908
  C    1.720531073  -2.645940572  -7.493083468
  H    1.803193613  -1.537911585  -7.624144621
  O    1.601683838  -3.142340113  -8.865208887
  C    0.440850823  -3.948841574  -9.005932106
  H    0.083926561  -3.803870376 -10.054936972
  C    0.392845876  -3.010871680  -6.775804958
  H    0.529107834  -3.734960190  -5.935063752
  C   -0.517834576  -3.556782792  -7.884274332
  H   -1.229275243  -2.772954299  -8.229042928
  H   -1.198664854  -4.375635889  -7.547670750
  O   -0.103965879  -1.737206359  -6.306062753
  N    0.923290026  -5.385454657  -8.890875725
  C    0.155090029  -6.521775157  -8.558197097
  C    1.048033705  -7.631866011  -8.505867426
  N    2.343012586  -7.145938690  -8.762588624
  C    2.262514622  -5.801959495  -8.978439668
  N   -1.185876772  -6.569398001  -8.344849180
  C   -1.682861670  -7.807794626  -8.013773799
  N   -0.883753307  -8.972602481  -7.983967374
  C    0.566199707  -8.944219371  -8.142730431
  N   -3.014934838  -7.871935999  -7.710374039
  H   -3.541873136  -6.987409977  -7.678722287
  H   -3.510666212  -8.732920868  -7.549148041
  O    1.153047290  -9.988788718  -7.980614669
  H    3.093049970  -5.109679615  -9.175664013
  H   -1.295442478  -9.879259826  -7.731952600
  P   -0.947274015  -1.755891368  -4.881471172
  O   -0.972852074  -0.097708843  -4.741391876
  C   -0.292246846   0.493767345  -3.611974108
  H    0.469807735   1.173346709  -4.061240117
  H    0.224245082  -0.261317235  -2.985525051
  C   -1.316716468   1.295816024  -2.805941049
  H   -1.078909865   1.270470789  -1.709868263
  O   -1.130331893   2.693192819  -3.186349633
  C   -2.387287777   3.363887988  -3.328354166
  H   -2.356488004   4.229005836  -2.616027896
  C   -2.814225396   0.974040543  -3.066813145
  H   -2.996330021   0.411985763  -4.012978567
  C   -3.503385236   2.345905474  -3.077615752
  H   -3.997937611   2.517495325  -2.089094230
  H   -4.334903258   2.402187673  -3.804961508
  O   -3.371390631   0.252835376  -1.960189439
  O   -0.234418890  -2.483300668  -3.810685021
  O   -2.391228170  -2.073833610  -5.535388170
  N   -2.409897051   3.929109568  -4.712864634
  C   -2.141813229   3.319275525  -5.935791579
  C   -2.230564865   4.343908245  -6.936493427
  N   -2.537620906   5.570880020  -6.329825423
  C   -2.632798813   5.327968954  -5.025784125
  N   -1.850478961   2.007458423  -6.295982107
  C   -1.608129972   1.764070923  -7.657230251
  N   -1.680581698   2.678278941  -8.613822593
  C   -1.995749535   4.019672272  -8.310505657
  H   -1.346343639   0.716636690  -7.934611269
  N   -2.055565942   4.906536184  -9.317931273
  H   -1.876727478   4.632708574 -10.283313732
  H   -2.276090485   5.887370593  -9.139883044
  H   -2.856330411   6.056442035  -4.248965913
  P   -2.967360254  -1.358753340  -1.890678621
  O   -1.776030351  -1.155417226  -0.798622876
  C   -0.837678409  -2.252079751  -0.641409387
  H   -0.374971252  -2.500492728  -1.628400799
  H   -0.064753586  -1.822096440   0.035124828
  C   -1.603765655  -3.404671635  -0.006378307
  H   -1.905327547  -3.201725202   1.050015993
  O   -2.857228403  -3.435903838  -0.772193673
  C   -3.158045219  -4.800954711  -1.225806452
  H   -4.221560873  -4.938793379  -0.903896070
  C   -0.977443821  -4.807183235  -0.153120577
  H   -0.169192972  -4.828186183  -0.944381668
  C   -2.164456037  -5.715833843  -0.519483788
  H   -1.840301012  -6.593959933  -1.120611913
  H   -2.606113688  -6.154046682   0.404642376
  O   -0.486155719  -5.150687386   1.149297425
  O   -2.565368547  -1.849270209  -3.251216524
  O   -4.401041364  -1.881122791  -1.347530019
  N   -3.096678960  -4.812126519  -2.710267101
  C   -1.914787991  -5.195454464  -3.436842623
  N   -2.052697373  -5.283209576  -4.841256102
  C   -3.243221630  -4.946630084  -5.567584929
  C   -4.336759940  -4.399335668  -4.751350717
  C   -4.244112296  -4.354476617  -3.400304747
  O   -0.872491218  -5.487708964  -2.883558833
  H   -1.233754121  -5.667362914  -5.368609121
  O   -3.246343292  -5.136062306  -6.767470280
  C   -5.553034695  -3.939081802  -5.476811701
  H   -5.366576231  -3.823218866  -6.559066255
  H   -6.377271414  -4.665517957  -5.381133947
  H   -5.925684976  -2.972389113  -5.110511628
  H   -5.064769337  -3.963464522  -2.777232274
  P    0.896166014  -6.063687022   1.136084620
  O    1.878143201  -4.979859647   0.387382319
  C    2.990048319  -5.543137441  -0.352790234
  H    3.870810384  -5.500825708   0.323263760
  H    2.809013637  -6.595353642  -0.665830463
  C    3.180042149  -4.634244308  -1.576078177
  H    3.956805318  -3.852097350  -1.408537206
  O    3.741110646  -5.512935987  -2.611568224
  C    2.987037632  -5.444021647  -3.826114031
  H    3.760822643  -5.388361951  -4.633109588
  C    1.898878545  -4.031293114  -2.187991644
  H    0.962905007  -4.500943133  -1.784800922
  C    2.040682016  -4.258250674  -3.701535594
  H    1.037595800  -4.419733030  -4.161244544
  H    2.465209596  -3.354849939  -4.187745414
  O    1.877480975  -2.633412248  -1.893992508
  O    0.832603302  -7.396090443   0.520910585
  O    1.306814446  -5.931568596   2.699315659
  N    2.240967655  -6.751366986  -3.994808201
  C    1.251594656  -6.916130568  -5.050936585
  N    0.805479343  -8.176497190  -5.355160544
  C    1.203355455  -9.250484567  -4.589919400
  C    2.010251158  -9.068277712  -3.414440562
  C    2.533847960  -7.828604847  -3.161936353
  O    0.888713101  -5.908941355  -5.678533276
  N    0.788856674 -10.491045428  -5.001634613
  H    1.137559703 -11.327207858  -4.550876510
  H    0.448671015 -10.603262109  -5.951820447
  H    2.309153491  -5.068037544  -6.373782242
  H    3.218343722  -7.636581686  -2.315049250
  H    2.207968646  -9.900980342  -2.738631044
  H    1.121210829  -2.226567613  -2.407395388
  H   -3.139332609  -2.332086597  -4.865109721
  H   -4.469577598  -2.133987995  -0.371084332
  H    1.154840314  -6.719555383   3.297775268
  H    3.178058483  -7.723193571  -8.762344659
  H   -1.713745018   1.258159261  -5.584391399

