%mem=64gb
%nproc=28       
%Chk=snap_161.chk
# opt b3lyp/6-31g(d,p)  scf=(xqc, tight)  pop=min    

tetra snap_161 

2     1 
  O    3.115198740  -4.256581716  -4.590017115
  C    3.435163833  -2.993235745  -5.183519823
  H    4.385124150  -3.203393450  -5.725314100
  H    3.629011944  -2.266066693  -4.370043426
  C    2.363913486  -2.474209297  -6.146850791
  H    2.510390570  -1.386470434  -6.369976919
  O    2.557916608  -3.105312297  -7.449902629
  C    1.445966610  -3.904931177  -7.813960296
  H    1.253547583  -3.681346829  -8.895066793
  C    0.907494081  -2.764917412  -5.720337652
  H    0.854931801  -3.265034130  -4.712539367
  C    0.299594283  -3.628226746  -6.836160469
  H   -0.530691449  -3.084893041  -7.338222303
  H   -0.165120095  -4.547145044  -6.424395691
  O    0.254384160  -1.476297863  -5.724537151
  N    1.884124481  -5.344744811  -7.725410912
  C    1.720238786  -6.308109714  -8.736598309
  C    2.190173650  -7.544544381  -8.204083636
  N    2.661392347  -7.298185562  -6.898245285
  C    2.473403731  -5.989816669  -6.619124351
  N    1.209515780  -6.123228856  -9.993775681
  C    1.190947422  -7.249415410 -10.776202746
  N    1.619775779  -8.521172544 -10.318964973
  C    2.134813842  -8.754014552  -8.979632602
  N    0.706917372  -7.128301733 -12.053622785
  H    0.451650806  -6.206559339 -12.404311203
  H    0.722886608  -7.883909895 -12.723231132
  O    2.427553046  -9.893679841  -8.689595605
  H    2.760837302  -5.422086425  -5.655468497
  H    1.570086604  -9.347471478 -10.933602082
  P   -0.844707632  -1.283792216  -4.500517472
  O   -1.175819483   0.308071768  -4.792953848
  C   -0.563322833   1.354358719  -4.011985183
  H   -0.043826199   1.988102426  -4.770204357
  H    0.172144756   0.956615294  -3.285680515
  C   -1.671519000   2.149448490  -3.319339187
  H   -1.303258684   2.606864660  -2.366392705
  O   -2.006824228   3.281936920  -4.182860289
  C   -3.423847547   3.501430630  -4.215378563
  H   -3.567598289   4.580595594  -3.953411719
  C   -3.013347984   1.406829666  -3.092539259
  H   -3.178466896   0.588173126  -3.844859155
  C   -4.077152854   2.499256639  -3.259453762
  H   -4.306488954   2.963383025  -2.270637114
  H   -5.056355822   2.105111755  -3.597362497
  O   -3.016804875   0.915769941  -1.754128807
  O   -0.254248541  -1.763470611  -3.236456247
  O   -2.142334208  -1.833220092  -5.296367012
  N   -3.855314528   3.326162653  -5.639396857
  C   -3.769519996   2.218927550  -6.479842076
  C   -4.274283907   2.627456557  -7.759834423
  N   -4.650007302   3.978533601  -7.707940923
  C   -4.395170537   4.387164442  -6.467665995
  N   -3.346370789   0.908379070  -6.279144087
  C   -3.372326569   0.054770897  -7.392654886
  N   -3.839943165   0.385519880  -8.588850472
  C   -4.307918738   1.691780515  -8.840971589
  H   -2.985172917  -0.981537785  -7.220458894
  N   -4.755052593   1.979733744 -10.076739245
  H   -4.759310496   1.281381989 -10.817204193
  H   -5.100394600   2.911879331 -10.304631647
  H   -4.561394049   5.387519246  -6.073578394
  P   -2.912859260  -0.741693332  -1.639942049
  O   -1.821284836  -0.855007464  -0.445442822
  C   -0.946294699  -2.009746952  -0.480143961
  H   -0.178976157  -1.866440420  -1.279782647
  H   -0.443294112  -1.928326507   0.509144051
  C   -1.750045168  -3.305220602  -0.620241657
  H   -1.717159387  -3.916380072   0.313155994
  O   -3.143024243  -2.900614858  -0.826345111
  C   -3.854460752  -4.041106721  -1.483401239
  H   -4.264516641  -4.631702534  -0.624651040
  C   -1.439018975  -4.181474035  -1.859089444
  H   -0.943754933  -3.607105554  -2.685031360
  C   -2.785805390  -4.792472389  -2.272812662
  H   -2.927432895  -4.754139379  -3.377752038
  H   -2.807657798  -5.880448942  -2.036408267
  O   -0.613617492  -5.256227863  -1.352674253
  O   -2.657575438  -1.276211240  -3.027119084
  O   -4.372297714  -0.935734153  -0.942949135
  N   -4.974460876  -3.440264107  -2.229899510
  C   -4.797704839  -2.912606772  -3.544386190
  N   -5.564995771  -1.788315419  -3.893043640
  C   -6.529094452  -1.143797142  -3.019870650
  C   -6.880504526  -1.960610301  -1.838603902
  C   -6.098721304  -2.996964008  -1.458902846
  O   -4.039283127  -3.427320756  -4.364372711
  H   -5.415974815  -1.389455000  -4.828129210
  O   -6.908543560  -0.050083440  -3.358906044
  C   -8.103102081  -1.564458245  -1.092965321
  H   -7.859061659  -0.905263574  -0.241982443
  H   -8.813037904  -1.000546019  -1.723501943
  H   -8.659886234  -2.426285734  -0.694357219
  H   -6.298112340  -3.582897302  -0.552413835
  P    0.705635407  -5.613895531  -2.246588758
  O    1.877454525  -4.997614585  -1.280011611
  C    3.232824766  -5.423026600  -1.564115865
  H    3.384959057  -5.770911649  -2.612895967
  H    3.808615677  -4.478602899  -1.424043453
  C    3.633985684  -6.462600274  -0.517306070
  H    3.262661158  -6.172493656   0.496044774
  O    2.950527094  -7.735266684  -0.746813342
  C    3.879461829  -8.778953732  -1.144381427
  H    3.772325463  -9.544183045  -0.333742311
  C    5.156929542  -6.771651071  -0.548813227
  H    5.764985802  -5.991466078  -1.067290761
  C    5.270530353  -8.152151581  -1.221313763
  H    5.625814210  -8.035319258  -2.270181286
  H    6.046899137  -8.776651261  -0.734584149
  O    5.700658245  -6.741771213   0.755024450
  O    0.742350593  -5.035377937  -3.621667790
  O    0.729572729  -7.220264894  -2.149667907
  N    3.366260496  -9.344590210  -2.423800778
  C    3.431846830  -8.605721337  -3.690492400
  N    3.057546406  -9.261657358  -4.849738951
  C    2.622322439 -10.560237695  -4.828959811
  C    2.480799895 -11.269038732  -3.575008785
  C    2.855694173 -10.651628325  -2.418872790
  O    3.800147317  -7.444719146  -3.680855384
  N    2.317709708 -11.132358353  -6.025346961
  H    2.033768101 -12.098435252  -6.100369384
  H    2.467871036 -10.626084608  -6.904600593
  H    2.237015216  -4.219953513  -4.072005754
  H    2.773126408 -11.159144882  -1.444877740
  H    2.079563092 -12.283161074  -3.564260199
  H    5.305502006  -7.417824054   1.349503513
  H   -2.893217239  -2.290553602  -4.737106505
  H   -4.378530448  -1.337591468  -0.016013228
  H    1.603034614  -7.667458844  -1.798398201
  H    3.029077942  -8.040418432  -6.246746299
  H   -2.810824292   0.628207328  -5.413791404

