%mem=64gb
%nproc=28       
%Chk=snap_77.chk
# opt b3lyp/6-31g(d,p)  scf=(xqc, tight)  pop=min    

tetra snap_77 

2     1 
  O    3.082571978  -5.654227805  -6.999486780
  C    3.110036804  -4.317063525  -7.524899086
  H    3.725500779  -4.434799599  -8.446983424
  H    3.655642495  -3.676594942  -6.804803554
  C    1.743134103  -3.719615976  -7.867791981
  H    1.843373090  -2.627043178  -8.105106807
  O    1.285042492  -4.286382009  -9.132354938
  C    0.051105302  -4.977180275  -8.982114679
  H   -0.586032656  -4.666728933  -9.849736344
  C    0.613200707  -3.937615783  -6.833983229
  H    0.952697327  -4.488300158  -5.917717447
  C   -0.497645782  -4.687747636  -7.586222234
  H   -1.435358217  -4.088237771  -7.640391897
  H   -0.804736830  -5.603081692  -7.030831705
  O    0.244725015  -2.595106632  -6.460167372
  N    0.365850662  -6.442410362  -9.164624040
  C   -0.351558671  -7.360372050  -9.962749839
  C    0.311038452  -8.613735129  -9.833624805
  N    1.413607366  -8.432284773  -8.974658631
  C    1.436825283  -7.133665531  -8.583619945
  N   -1.461363125  -7.119725526 -10.722218281
  C   -1.940046222  -8.217641292 -11.400693829
  N   -1.348425737  -9.498114099 -11.321781813
  C   -0.163545986  -9.792445369 -10.518668484
  N   -3.052043834  -8.041033482 -12.181705518
  H   -3.471727753  -7.117170568 -12.257031484
  H   -3.461398294  -8.780116835 -12.734067392
  O    0.253895850 -10.920371405 -10.520650870
  H    2.206148033  -6.606998243  -7.892865810
  H   -1.744217605 -10.295324803 -11.841697370
  P   -0.747955772  -2.398491352  -5.140668760
  O   -1.678783813  -1.171392673  -5.735729575
  C   -1.240997463   0.165143435  -5.447930874
  H   -1.796103830   0.761379840  -6.204248909
  H   -0.154210063   0.298422040  -5.620035506
  C   -1.633093064   0.523290012  -4.008219000
  H   -1.067701443  -0.093631739  -3.260138002
  O   -1.122035174   1.875616640  -3.755867349
  C   -2.080926675   2.659761035  -3.026751257
  H   -1.537169646   3.036367911  -2.121549781
  C   -3.161084123   0.595964065  -3.743700345
  H   -3.745574430   0.749261782  -4.685980014
  C   -3.297468801   1.785313682  -2.762741625
  H   -3.290878275   1.406415821  -1.711198779
  H   -4.275195716   2.286294883  -2.865825061
  O   -3.800216995  -0.533657409  -3.180938641
  O    0.075070961  -2.068993734  -3.947978430
  O   -1.621989589  -3.733677423  -5.398427080
  N   -2.371552760   3.838098731  -3.912439048
  C   -1.476834384   4.405455382  -4.813950556
  C   -2.083544713   5.605607546  -5.306903557
  N   -3.342760410   5.767571519  -4.712260723
  C   -3.507921754   4.731279141  -3.890044869
  N   -0.212938145   3.999239570  -5.240027404
  C    0.434430839   4.850255279  -6.154250099
  N   -0.081623787   5.972097276  -6.629266182
  C   -1.362037088   6.422477027  -6.236410987
  H    1.450287282   4.547961996  -6.495223210
  N   -1.813440691   7.577951562  -6.747911402
  H   -1.253689382   8.129520175  -7.399742069
  H   -2.730920824   7.945868939  -6.491420530
  H   -4.371697638   4.547648903  -3.256629594
  P   -3.035849887  -1.842883599  -2.490917924
  O   -2.152534327  -0.929660281  -1.459757691
  C   -0.955081737  -1.580057466  -0.944093710
  H   -0.309100861  -1.905900003  -1.789625044
  H   -0.443980919  -0.764462040  -0.387050253
  C   -1.428883008  -2.709423293  -0.037941685
  H   -1.734241941  -2.348239521   0.972459806
  O   -2.672632843  -3.176228082  -0.670413927
  C   -2.792733641  -4.637291531  -0.540236475
  H   -3.753933112  -4.750801859   0.023352641
  C   -0.531513096  -3.967631864   0.037423012
  H    0.084608439  -4.105419678  -0.893519584
  C   -1.552318328  -5.107948127   0.213901736
  H   -1.149700505  -6.080832453  -0.130128664
  H   -1.757408945  -5.257407977   1.299202990
  O    0.267872048  -3.996380512   1.212065840
  O   -2.274486901  -2.682583396  -3.460148779
  O   -4.450147369  -2.453092096  -1.957488012
  N   -2.958554626  -5.209177968  -1.899351819
  C   -1.865632563  -5.726648181  -2.660631156
  N   -2.205028759  -6.354364417  -3.873167339
  C   -3.534018924  -6.447330846  -4.437099013
  C   -4.561305350  -5.743259054  -3.652805775
  C   -4.265825030  -5.177014787  -2.459761485
  O   -0.700665428  -5.652558059  -2.295873093
  H   -1.433923878  -6.853340213  -4.370653182
  O   -3.640656018  -7.055205902  -5.475225273
  C   -5.930907056  -5.693912833  -4.234551657
  H   -5.978886025  -6.201724761  -5.214425995
  H   -6.671652997  -6.194702276  -3.591531728
  H   -6.272544340  -4.660696339  -4.398604894
  H   -5.026611152  -4.648754747  -1.862456366
  P    1.632410911  -3.049286159   1.320612484
  O    2.872992713  -4.028160169   0.867799994
  C    2.714160495  -5.096135880  -0.074592815
  H    3.440522260  -5.857053046   0.305460177
  H    1.707278541  -5.545208348  -0.063687138
  C    3.176762221  -4.579103911  -1.442460174
  H    4.040404325  -3.874447706  -1.324189641
  O    3.730457780  -5.732164894  -2.153979388
  C    3.166530497  -5.858800425  -3.465286981
  H    4.027993408  -6.117912799  -4.127324574
  C    2.097408451  -3.984295124  -2.373790319
  H    1.042081644  -4.220570667  -2.066521016
  C    2.441291982  -4.544365642  -3.760499429
  H    1.535976135  -4.653243714  -4.397126203
  H    3.109689341  -3.834856406  -4.292164429
  O    2.289209731  -2.562553602  -2.348966755
  O    1.807451946  -2.416395589   2.612588370
  O    1.381665883  -2.087254992   0.017506992
  N    2.224480423  -7.043816937  -3.425845049
  C    1.179645584  -7.227178913  -4.425275794
  N    0.276523862  -8.248798449  -4.277185569
  C    0.365374821  -9.103062416  -3.205056706
  C    1.422369050  -8.975200896  -2.236116926
  C    2.313257170  -7.942694725  -2.363803768
  O    1.139969339  -6.447590963  -5.382985247
  N   -0.614184650 -10.050146607  -3.105351005
  H   -0.591415365 -10.767189200  -2.396620365
  H   -1.318391963 -10.139650483  -3.830991367
  H    2.505280352  -5.726929482  -6.173416642
  H    3.136011758  -7.784145779  -1.642645412
  H    1.513014794  -9.687455086  -1.416217931
  H    1.591044250  -2.125179109  -2.946284446
  H   -2.087790089  -4.173555142  -4.623002671
  H   -5.172690042  -1.778224354  -1.755275044
  H    2.050603382  -2.086124217  -0.770345001
  H    2.056890317  -9.173859408  -8.718610381
  H    0.186654164   3.122334921  -4.871962528

