%mem=64gb
%nproc=28       
%Chk=snap_41.chk
# opt b3lyp/6-31g(d,p)  scf=(xqc, tight)  pop=min    

tetra snap_41 

2     1 
  O    2.081099130  -4.207760258  -7.550146882
  C    2.135597750  -2.956849922  -8.259280866
  H    3.095412434  -3.037516073  -8.817759610
  H    2.213082656  -2.131937866  -7.513819662
  C    0.968778204  -2.730907208  -9.219260756
  H    1.003231279  -1.689699047  -9.633138497
  O    1.173868493  -3.570998509 -10.405349482
  C    0.016746822  -4.337760191 -10.696977168
  H   -0.091715965  -4.345410492 -11.810114975
  C   -0.448768704  -3.080751362  -8.691244058
  H   -0.442923871  -3.756017011  -7.793860021
  C   -1.142603920  -3.756537758  -9.881649409
  H   -1.714852094  -3.001594759 -10.467724318
  H   -1.892572301  -4.507355918  -9.573504160
  O   -1.186993684  -1.869167883  -8.410684689
  N    0.321371416  -5.752983322 -10.256759291
  C   -0.214588247  -6.929537120 -10.822301163
  C    0.314305308  -8.018197501 -10.075393590
  N    1.152988523  -7.484934584  -9.074606965
  C    1.146545908  -6.134008443  -9.188976137
  N   -1.076644294  -7.028345395 -11.879115568
  C   -1.421830512  -8.317020355 -12.214770852
  N   -0.938346449  -9.453959066 -11.530008788
  C   -0.022908205  -9.385367751 -10.390913518
  N   -2.308911794  -8.484116307 -13.248071666
  H   -2.629450467  -7.669703451 -13.768490592
  H   -2.537577880  -9.389805639 -13.631971890
  O    0.317888933 -10.417996042  -9.878424902
  H    1.709666113  -5.357438201  -8.514097985
  H   -1.227780162 -10.401709045 -11.813690918
  P   -0.814633469  -1.248827855  -6.925177907
  O   -2.105667605  -0.258658209  -6.609295102
  C   -1.790008676   1.133928617  -6.429642223
  H   -2.779404345   1.618958818  -6.567782920
  H   -1.091137591   1.509169569  -7.203573886
  C   -1.237634373   1.347868689  -5.008992245
  H   -0.140860638   1.126853286  -4.909248136
  O   -1.309683574   2.775649517  -4.711772426
  C   -2.353347275   3.057914007  -3.776222104
  H   -1.905895162   3.784602945  -3.049164032
  C   -2.078672651   0.626602297  -3.927074119
  H   -2.758677903  -0.151255038  -4.348993112
  C   -2.845797179   1.740789388  -3.185063950
  H   -2.617041127   1.685396127  -2.093360874
  H   -3.936689202   1.581335933  -3.253633761
  O   -1.099358373   0.079552574  -3.031840867
  O    0.489624393  -0.568420873  -6.836789654
  O   -1.107373761  -2.520336494  -5.999589479
  N   -3.399456548   3.788606981  -4.577479690
  C   -3.128866200   4.587541824  -5.684793768
  C   -4.364590976   5.202084361  -6.067469154
  N   -5.382054943   4.779941432  -5.200080501
  C   -4.810446699   3.953796290  -4.322087981
  N   -1.942856917   4.835984578  -6.375927236
  C   -2.028137858   5.756059616  -7.435635171
  N   -3.145003886   6.353686735  -7.821300730
  C   -4.374921513   6.118444643  -7.168820738
  H   -1.085573776   5.988576164  -7.982473036
  N   -5.463551418   6.764787572  -7.614172220
  H   -5.413891000   7.419988383  -8.396122961
  H   -6.372200104   6.631826089  -7.168204718
  H   -5.306571698   3.455992492  -3.492314934
  P   -1.318269224  -1.450035814  -2.450722327
  O   -0.541151585  -1.224691948  -1.048575536
  C    0.020644810  -2.427609694  -0.448749549
  H    0.753173714  -2.903393195  -1.140427338
  H    0.566425871  -2.029103108   0.435798538
  C   -1.152066919  -3.322630295  -0.058759735
  H   -1.765316924  -2.898568262   0.770726772
  O   -2.054563479  -3.290222053  -1.224426924
  C   -2.365888847  -4.656017835  -1.676063777
  H   -3.477049316  -4.631270369  -1.786188089
  C   -0.801588151  -4.809530415   0.188324953
  H    0.238894855  -5.088324690  -0.114054021
  C   -1.849539091  -5.600021286  -0.599822984
  H   -1.423060787  -6.544884379  -1.026709536
  H   -2.653590443  -5.949511333   0.084778291
  O   -1.064314273  -5.079324586   1.585607671
  O   -0.815571332  -2.447056012  -3.446051960
  O   -2.942493555  -1.354670798  -2.254860730
  N   -1.737196316  -4.872439114  -3.003259664
  C   -0.308496504  -4.845057768  -3.161750544
  N    0.167120524  -5.095609636  -4.481714416
  C   -0.657972918  -5.275977223  -5.614507205
  C   -2.101795574  -5.235167475  -5.375170112
  C   -2.583490366  -5.023401346  -4.123062959
  O    0.470431693  -4.636648837  -2.253950420
  H    1.191865405  -5.150606682  -4.583794339
  O   -0.093905587  -5.426881207  -6.702445428
  C   -2.981668692  -5.371582452  -6.568975662
  H   -3.954126451  -5.825847469  -6.333973794
  H   -3.170063201  -4.381977110  -7.019635932
  H   -2.512952022  -6.002205745  -7.341815070
  H   -3.662096739  -4.974110356  -3.923242572
  P    0.253226430  -5.139311689   2.556819603
  O    1.189376703  -6.139031881   1.653559575
  C    2.439548197  -6.585687214   2.241797845
  H    2.628933307  -6.141298563   3.237245471
  H    2.307876251  -7.685699516   2.357011980
  C    3.579186907  -6.281645276   1.258114196
  H    4.532637207  -6.094614866   1.806662965
  O    3.876828524  -7.485187584   0.499174310
  C    3.252421160  -7.434648007  -0.801617892
  H    3.978192642  -7.950974263  -1.475227377
  C    3.283516952  -5.186296334   0.197233783
  H    2.461138629  -4.493571926   0.484766643
  C    3.023562457  -5.956386143  -1.108958019
  H    1.998484056  -5.740659476  -1.508352593
  H    3.685570912  -5.604341931  -1.921634645
  O    4.380661276  -4.291358213   0.090501328
  O    0.055885997  -5.381036330   3.978650744
  O    0.961088001  -3.684941755   2.164982137
  N    2.021322156  -8.299505331  -0.684636079
  C    0.722404602  -7.981428166  -1.288751199
  N   -0.382224142  -8.717936344  -0.895998478
  C   -0.249419637  -9.777387878  -0.047919400
  C    1.034263756 -10.163526552   0.482214751
  C    2.123860232  -9.397729314   0.170099727
  O    0.659966336  -7.084093892  -2.115686256
  N   -1.394172444 -10.456126597   0.283423925
  H   -1.376376792 -11.268623649   0.876505453
  H   -2.283816563 -10.187099957  -0.112306270
  H    1.263559479  -4.267240251  -6.967385445
  H    3.123464335  -9.620239621   0.582984619
  H    1.131766522 -11.037523167   1.120912470
  H    5.201291509  -4.735426068  -0.216309206
  H   -1.021580077  -2.422794146  -4.918561808
  H   -3.368311111  -1.934761088  -1.550316117
  H    1.289815637  -3.113356379   2.903226800
  H    1.642742400  -8.049850471  -8.388734845
  H   -1.072597751   4.360025353  -6.080014285

