%mem=64gb
%nproc=28       
%Chk=snap_167.chk
# opt b3lyp/6-31g(d,p)  scf=(xqc, tight)  pop=min    

tetra snap_167 

2     1 
  O    3.331437571  -4.432103086  -4.304909309
  C    3.736048587  -3.180024335  -4.870082940
  H    4.679757434  -3.438637975  -5.400788888
  H    3.964247065  -2.482827454  -4.038994431
  C    2.717037374  -2.571154492  -5.837343822
  H    2.982750464  -1.512664779  -6.094491533
  O    2.811495150  -3.247710847  -7.126472351
  C    1.622058926  -3.963267220  -7.427652516
  H    1.360940245  -3.690156482  -8.483141938
  C    1.244421663  -2.678872538  -5.383025894
  H    1.142316198  -2.991790338  -4.313734099
  C    0.572175271  -3.653237555  -6.359591290
  H   -0.347672603  -3.219049627  -6.811157636
  H    0.210312642  -4.554280470  -5.811439406
  O    0.734028573  -1.334463857  -5.564424529
  N    1.987284472  -5.424682445  -7.422938352
  C    1.745067444  -6.329129011  -8.472020289
  C    2.254442904  -7.592274809  -8.049342907
  N    2.807536682  -7.424601565  -6.764104278
  C    2.641262409  -6.133998156  -6.396134085
  N    1.134336298  -6.074652218  -9.670965249
  C    1.036334150  -7.156954645 -10.506834575
  N    1.515930263  -8.446658015 -10.166141770
  C    2.161538802  -8.748547467  -8.899785757
  N    0.413775365  -6.974716078 -11.715648160
  H    0.116923958  -6.038027954 -11.984879352
  H    0.391408721  -7.684080813 -12.434232232
  O    2.524062111  -9.891471124  -8.723434117
  H    2.982360448  -5.630663856  -5.428232775
  H    1.415401755  -9.236209744 -10.821011172
  P   -0.636497598  -0.992347857  -4.727811809
  O   -1.100042374   0.366481364  -5.555931754
  C   -0.490163030   1.618655537  -5.153333583
  H   -0.381280036   2.163413896  -6.122437718
  H    0.515831991   1.460489136  -4.715227550
  C   -1.413763082   2.381195099  -4.205424565
  H   -0.825630043   2.968564084  -3.457078361
  O   -2.119863744   3.370694563  -5.025917508
  C   -3.471911326   3.531724171  -4.574050064
  H   -3.601521080   4.626803672  -4.385605564
  C   -2.544076425   1.580061501  -3.510327935
  H   -2.903199932   0.726686591  -4.145386651
  C   -3.672094126   2.613169993  -3.364390894
  H   -3.578284157   3.161120877  -2.401119652
  H   -4.681646464   2.147621446  -3.320354401
  O   -2.048258423   1.152984702  -2.244203227
  O   -0.328551683  -0.797945026  -3.277570666
  O   -1.655400764  -2.030732950  -5.406463999
  N   -4.361719805   3.164727274  -5.723909491
  C   -4.412440570   2.003657529  -6.488401875
  C   -5.531018410   2.137921838  -7.379716988
  N   -6.155631961   3.375315756  -7.164642017
  C   -5.468040932   3.973787502  -6.194622916
  N   -3.618643612   0.860600935  -6.530064507
  C   -3.960624973  -0.118493742  -7.469768817
  N   -5.007174119  -0.054920082  -8.281353569
  C   -5.846758822   1.079365087  -8.284876476
  H   -3.301668501  -1.016983493  -7.513054202
  N   -6.886879715   1.099007287  -9.138677796
  H   -7.071988577   0.323474245  -9.770699943
  H   -7.518950566   1.899071084  -9.170463356
  H   -5.670065258   4.957440694  -5.778401088
  P   -2.215355063  -0.487383361  -1.993889308
  O   -1.066208800  -0.837488592  -0.903001825
  C   -0.460936086  -2.148721142  -0.990172119
  H    0.173568174  -2.222506716  -1.897791810
  H    0.207678115  -2.134801420  -0.099884465
  C   -1.544235417  -3.225757473  -0.882429647
  H   -1.512261551  -3.742379353   0.106744943
  O   -2.815911045  -2.507813009  -0.951090472
  C   -3.873880136  -3.449205670  -1.395797897
  H   -4.422543006  -3.714553253  -0.457070981
  C   -1.658408568  -4.257064156  -2.032874549
  H   -1.314543793  -3.876900651  -3.022762452
  C   -3.148564340  -4.634250808  -2.037344889
  H   -3.510431948  -4.880887795  -3.061998993
  H   -3.302041493  -5.571641299  -1.454061801
  O   -0.948973000  -5.448258191  -1.615258937
  O   -2.562024738  -1.150787953  -3.323319529
  O   -3.529610955  -0.320987123  -1.012534950
  N   -4.779355354  -2.661336228  -2.267119259
  C   -4.462632534  -2.446905109  -3.642474320
  N   -5.088300165  -1.353530913  -4.284796413
  C   -5.845985771  -0.336288080  -3.607654541
  C   -6.235450010  -0.694772881  -2.238489405
  C   -5.675657610  -1.759931748  -1.614004926
  O   -3.774307286  -3.228673661  -4.299264462
  H   -4.824072114  -1.179270974  -5.256451671
  O   -6.047368363   0.689640038  -4.228920029
  C   -7.232273477   0.186405494  -1.572206305
  H   -7.618378688   0.966639102  -2.251114947
  H   -8.108807105  -0.377632060  -1.216605798
  H   -6.800319977   0.709746050  -0.704274797
  H   -5.904012523  -2.001221284  -0.566984434
  P    0.494359049  -5.692355505  -2.338587340
  O    1.546375772  -5.296365738  -1.142175875
  C    2.905693148  -5.776292411  -1.300944100
  H    3.193286471  -5.960504068  -2.361509123
  H    3.500144388  -4.915490808  -0.914191103
  C    3.097223029  -7.003416009  -0.408499373
  H    2.579459731  -6.879398278   0.579421689
  O    2.425667473  -8.160842846  -0.998343759
  C    3.301015307  -9.303675796  -1.064333818
  H    2.837871873 -10.044972975  -0.364052876
  C    4.587064782  -7.386428184  -0.221605335
  H    5.295305959  -6.723899298  -0.762752572
  C    4.710515100  -8.854610752  -0.668517200
  H    5.439191506  -8.966665031  -1.494689780
  H    5.106919301  -9.477595745   0.161307317
  O    4.782672123  -7.257002324   1.185974987
  O    0.735606774  -4.826191177  -3.535959025
  O    0.504802744  -7.281277041  -2.572679545
  N    3.220886493  -9.837182318  -2.462508333
  C    3.280010558  -8.957273318  -3.625413467
  N    3.254206494  -9.528851847  -4.883567236
  C    3.205906911 -10.891465726  -5.046197561
  C    3.160041070 -11.768403052  -3.897772386
  C    3.160955986 -11.223097500  -2.646749760
  O    3.314762799  -7.748410007  -3.448720507
  N    3.205271429 -11.362103618  -6.321637109
  H    3.146415799 -12.348096563  -6.531985457
  H    3.200225937 -10.721487060  -7.121199181
  H    2.431285579  -4.360529771  -3.842404880
  H    3.119251247 -11.854541763  -1.745583029
  H    3.125864664 -12.850091378  -4.034707680
  H    5.735495589  -7.270885235   1.427061459
  H   -2.481140718  -2.357134815  -4.839098360
  H   -3.399302342  -0.570532269  -0.052217286
  H    1.409641179  -7.770488848  -2.388554721
  H    3.188437933  -8.209867924  -6.170463564
  H   -2.769679735   0.756241459  -5.921084530

