%mem=64gb
%nproc=28       
%Chk=snap_149.chk
# opt b3lyp/6-31g(d,p)  scf=(xqc, tight)  pop=min    

tetra snap_149 

2     1 
  O    2.574368695  -3.961773109  -4.938885621
  C    2.798328663  -2.718398481  -5.609882188
  H    3.851451641  -2.801220820  -5.959708499
  H    2.709529854  -1.899396773  -4.868505583
  C    1.843533073  -2.504008391  -6.786089303
  H    1.845430665  -1.438873153  -7.124007922
  O    2.372491904  -3.230034425  -7.942403361
  C    1.408434526  -4.121866934  -8.477340476
  H    1.492573615  -4.035328458  -9.590824327
  C    0.397126468  -3.019998770  -6.568221864
  H    0.309364647  -3.669174585  -5.651229036
  C    0.051423375  -3.788787537  -7.851196723
  H   -0.554077488  -3.140629364  -8.525088991
  H   -0.584471601  -4.672815826  -7.657174798
  O   -0.453131864  -1.860290127  -6.519506729
  N    1.838278129  -5.519426136  -8.101263593
  C    1.785033482  -6.634833586  -8.956166957
  C    2.215519090  -7.759012930  -8.192006995
  N    2.543967436  -7.299868047  -6.900377174
  C    2.318292064  -5.967925589  -6.852817985
  N    1.404049604  -6.658989796 -10.271596062
  C    1.479018650  -7.892182333 -10.866996537
  N    1.871575876  -9.065393787 -10.174806164
  C    2.254176989  -9.074030508  -8.772615232
  N    1.128666218  -7.987115127 -12.188808721
  H    0.872784917  -7.145003784 -12.701015145
  H    1.223373788  -8.838128273 -12.723802875
  O    2.531273393 -10.150084973  -8.288111899
  H    2.494952830  -5.262587955  -5.964471747
  H    1.890269218  -9.978809459 -10.652722053
  P   -1.156662875  -1.600639575  -5.036529659
  O   -1.351029211   0.043072015  -5.232951499
  C   -0.344365611   0.906985339  -4.666453745
  H    0.047010227   1.489661940  -5.534258964
  H    0.482322107   0.334001106  -4.197370950
  C   -1.012716054   1.844255746  -3.655549887
  H   -0.328979970   2.071048445  -2.798853236
  O   -1.203832589   3.126301083  -4.332438446
  C   -2.481268282   3.692962615  -4.017245169
  H   -2.270702365   4.728164204  -3.645134718
  C   -2.420401173   1.436396393  -3.150140154
  H   -2.941861089   0.741067861  -3.862832477
  C   -3.178008008   2.762407674  -3.018902750
  H   -3.096662713   3.144772512  -1.971708372
  H   -4.268117288   2.658287339  -3.181074107
  O   -2.266623881   0.867723972  -1.834346183
  O   -0.244867951  -2.080975587  -3.974053645
  O   -2.643928268  -2.075638920  -5.427374547
  N   -3.227590254   3.820442303  -5.307310445
  C   -3.571358104   2.852785591  -6.249506047
  C   -4.256971228   3.534421844  -7.309629074
  N   -4.315612579   4.907609796  -7.028279096
  C   -3.703925425   5.074167074  -5.859177183
  N   -3.391340554   1.474348905  -6.300923702
  C   -3.862058309   0.817287316  -7.448694343
  N   -4.510259863   1.404198661  -8.445283518
  C   -4.748090076   2.793777274  -8.431248643
  H   -3.679427804  -0.282065711  -7.496268554
  N   -5.419687770   3.339015327  -9.460115955
  H   -5.754700143   2.773002137 -10.238058107
  H   -5.610304836   4.341138037  -9.486626999
  H   -3.560112352   6.017813092  -5.337102795
  P   -2.491059416  -0.762926425  -1.825575277
  O   -1.406164771  -1.333100208  -0.769264346
  C   -0.765791673  -2.585279946  -1.106385247
  H   -0.376081247  -2.567519292  -2.157027286
  H    0.116543720  -2.550935236  -0.423650114
  C   -1.618960638  -3.824356899  -0.804914434
  H   -1.220913102  -4.352363856   0.099097885
  O   -2.991649894  -3.475035249  -0.459762551
  C   -3.905373591  -4.532708398  -0.897687684
  H   -4.326831774  -4.962384623   0.044304674
  C   -1.754333435  -4.821606340  -1.990262841
  H   -1.700771444  -4.343409505  -2.997264389
  C   -3.100595677  -5.518465534  -1.740398880
  H   -3.600280613  -5.806003917  -2.689944971
  H   -2.931890842  -6.481247503  -1.205183545
  O   -0.761576203  -5.850016634  -1.801350675
  O   -2.509738138  -1.291012261  -3.234976455
  O   -3.897362783  -0.892943072  -1.027767043
  N   -4.983403526  -3.811463562  -1.629215692
  C   -4.784631250  -3.355872241  -2.964128534
  N   -5.677352731  -2.385439385  -3.443834021
  C   -6.768014665  -1.802852658  -2.686796347
  C   -6.974458543  -2.430494203  -1.365709586
  C   -6.115113078  -3.360565378  -0.888283261
  O   -3.874129737  -3.775803768  -3.676232570
  H   -5.527117765  -2.053749061  -4.407673496
  O   -7.357828267  -0.892200192  -3.212807558
  C   -8.164798361  -1.981438968  -0.596416720
  H   -8.862288593  -2.809441181  -0.389812269
  H   -7.886564264  -1.531185872   0.370120489
  H   -8.746818951  -1.213552127  -1.138419712
  H   -6.250577140  -3.823143786   0.099278178
  P    0.568558266  -5.777880278  -2.745121104
  O    1.507468481  -4.808359666  -1.804391410
  C    2.934766347  -4.880176138  -2.044606231
  H    3.204136693  -5.324728051  -3.032201075
  H    3.239689261  -3.809522662  -2.058257345
  C    3.561096432  -5.620881889  -0.862326098
  H    3.105364842  -5.295756311   0.103329620
  O    3.229492320  -7.043335421  -0.903939026
  C    4.406098699  -7.857151682  -1.175651278
  H    4.494667924  -8.507672824  -0.268340740
  C    5.113109072  -5.531968431  -0.872167144
  H    5.510650430  -4.690846299  -1.488973973
  C    5.587387541  -6.909433710  -1.367271445
  H    5.904273971  -6.843500710  -2.434229613
  H    6.496392929  -7.244617559  -0.828982813
  O    5.602497431  -5.202468711   0.412851574
  O    0.413113850  -5.249062239  -4.123813718
  O    1.102684185  -7.292654166  -2.625443746
  N    4.052497640  -8.694425751  -2.353349551
  C    3.884159431  -8.126820472  -3.699409919
  N    3.416189624  -8.958566582  -4.701926188
  C    3.145530933 -10.280631187  -4.468153195
  C    3.335860988 -10.852270061  -3.152450877
  C    3.765334262 -10.050675692  -2.138397159
  O    4.137706111  -6.950002273  -3.885433777
  N    2.670610135 -11.013736452  -5.511669896
  H    2.506353509 -12.007174234  -5.438071548
  H    2.592818265 -10.601615797  -6.446930761
  H    1.639628970  -3.983988520  -4.527982242
  H    3.903612610 -10.441211657  -1.118226142
  H    3.131447834 -11.909204454  -2.982100712
  H    5.409701351  -5.893644187   1.084355618
  H   -3.204216994  -2.515948384  -4.654712860
  H   -4.031462732  -1.809580769  -0.595406148
  H    1.913509615  -7.476932940  -2.007042130
  H    2.917751432  -7.915113042  -6.125300582
  H   -2.803549835   0.961020707  -5.596605559

