%mem=64gb
%nproc=28       
%Chk=snap_112.chk
# opt b3lyp/6-31g(d,p)  scf=(xqc, tight)  pop=min    

tetra snap_112 

2     1 
  O    3.315233008  -4.380357269  -6.240851354
  C    3.408292173  -3.218991674  -7.062359673
  H    4.002249157  -3.461142097  -7.966344841
  H    3.995013007  -2.517007439  -6.429608870
  C    2.046367763  -2.632533514  -7.450098160
  H    2.109883772  -1.555896245  -7.739096581
  O    1.629545810  -3.288038460  -8.696433434
  C    0.506280265  -4.121542484  -8.487273739
  H   -0.184713878  -3.947565382  -9.350171596
  C    0.931826318  -2.888900345  -6.413066989
  H    1.362809612  -3.287924638  -5.447638939
  C   -0.050330600  -3.855272941  -7.089148842
  H   -1.081307347  -3.435737342  -7.151945845
  H   -0.152771161  -4.790402264  -6.484231005
  O    0.313303219  -1.603472439  -6.165347980
  N    0.992893660  -5.556330299  -8.611751037
  C    0.211054531  -6.693209890  -8.316857721
  C    1.050065932  -7.831643223  -8.503666793
  N    2.323882965  -7.368226751  -8.854047146
  C    2.280990227  -6.006277516  -8.929442761
  N   -1.111246501  -6.713826296  -7.981053532
  C   -1.646623918  -7.972584296  -7.829828384
  N   -0.889830453  -9.156279426  -7.978711835
  C    0.549781133  -9.160790926  -8.217321961
  N   -2.973071889  -8.045507814  -7.495077052
  H   -3.515160136  -7.162981088  -7.463051543
  H   -3.499396247  -8.906181478  -7.536400373
  O    1.111446681 -10.228575784  -8.190151096
  H    3.097583845  -5.339817084  -9.220239013
  H   -1.318153911 -10.072556339  -7.790525324
  P   -0.633225452  -1.581834649  -4.800165890
  O   -0.863664989   0.062587738  -4.758658212
  C   -0.151314141   0.766080727  -3.708889987
  H    0.493343008   1.498641647  -4.249309714
  H    0.495257615   0.089525703  -3.107412226
  C   -1.169358572   1.490269783  -2.825490044
  H   -0.858245482   1.469311481  -1.748123599
  O   -1.099394035   2.901568869  -3.198160726
  C   -2.402810278   3.489359523  -3.254228273
  H   -2.376151317   4.363868771  -2.554253075
  C   -2.659104027   1.079331929  -2.978744692
  H   -2.870982059   0.511991821  -3.917845908
  C   -3.429244636   2.406103497  -2.913449036
  H   -3.835810826   2.539286172  -1.878678554
  H   -4.327727763   2.415041283  -3.556464089
  O   -3.070067854   0.331690916  -1.829796124
  O    0.079838066  -2.175293119  -3.647686199
  O   -1.980782387  -2.135912336  -5.517326227
  N   -2.566267898   4.025867015  -4.640202063
  C   -2.443117421   3.378160096  -5.866417581
  C   -2.675370524   4.368029171  -6.878450034
  N   -2.917065700   5.612215166  -6.277381513
  C   -2.843590160   5.411797364  -4.964471809
  N   -2.182579672   2.055405466  -6.215437746
  C   -2.126152208   1.768690937  -7.589704175
  N   -2.348105349   2.646883181  -8.556094044
  C   -2.632529939   3.996851718  -8.259387817
  H   -1.890909605   0.715940270  -7.867615684
  N   -2.850126927   4.844987550  -9.277631100
  H   -2.817213376   4.534376982 -10.247528462
  H   -3.047329222   5.831894065  -9.104815111
  H   -2.975567624   6.163106958  -4.187467706
  P   -2.768146194  -1.301499958  -1.904751515
  O   -1.624052841  -1.296855638  -0.752861853
  C   -0.759135903  -2.469715053  -0.721360129
  H   -0.322669212  -2.652724298  -1.731976313
  H    0.049417953  -2.166378191  -0.018198401
  C   -1.621363087  -3.606825784  -0.190622361
  H   -1.933197150  -3.450314106   0.869969366
  O   -2.860417539  -3.465968458  -0.968936883
  C   -3.287056456  -4.752219712  -1.518126430
  H   -4.352593927  -4.830554230  -1.181112395
  C   -1.121667970  -5.048700417  -0.429372097
  H   -0.266544976  -5.109404048  -1.160832714
  C   -2.363225447  -5.809620081  -0.921817022
  H   -2.086778624  -6.627558313  -1.618106068
  H   -2.840942129  -6.331161749  -0.056959738
  O   -0.795765949  -5.644662798   0.839769575
  O   -2.373950238  -1.681142899  -3.304278684
  O   -4.262500006  -1.773123067  -1.472242062
  N   -3.267045708  -4.648618097  -3.002718371
  C   -2.181904834  -5.146890443  -3.799376201
  N   -2.469802686  -5.320047010  -5.173854858
  C   -3.701313207  -4.935549796  -5.809081987
  C   -4.589637655  -4.121100086  -4.964894812
  C   -4.384804725  -4.039762227  -3.627879595
  O   -1.098956857  -5.444603536  -3.334653323
  H   -1.751649088  -5.796377272  -5.754047941
  O   -3.893339099  -5.318124453  -6.944500592
  C   -5.729270613  -3.443367428  -5.640392835
  H   -6.700802249  -3.837584052  -5.299095744
  H   -5.730981634  -2.358695465  -5.464083562
  H   -5.707630749  -3.591392722  -6.735012069
  H   -5.072336710  -3.489421432  -2.963512755
  P    0.772292506  -5.558110652   1.325652553
  O    1.480609790  -6.009871434  -0.090552414
  C    2.914178873  -5.831821449  -0.207008168
  H    3.371913353  -5.420246894   0.712030877
  H    3.306876501  -6.861672282  -0.371175299
  C    3.207932337  -4.947452245  -1.427570655
  H    4.062044451  -4.250680921  -1.230390429
  O    3.717298808  -5.835200468  -2.472243761
  C    2.963645807  -5.718489798  -3.681679770
  H    3.727286245  -5.541099863  -4.484401458
  C    2.008529217  -4.187130119  -2.031711885
  H    1.050516682  -4.382955452  -1.491692376
  C    1.917369823  -4.624622132  -3.496288165
  H    0.886599650  -4.968432172  -3.745597914
  H    2.114497836  -3.774805023  -4.193212251
  O    2.319588204  -2.798394983  -1.895171137
  O    1.127695435  -6.205172158   2.576713897
  O    1.007128559  -3.917706642   1.261316971
  N    2.311350678  -7.059120254  -3.953131099
  C    1.532911439  -7.225009615  -5.173996219
  N    1.089831689  -8.482243951  -5.514583638
  C    1.323541756  -9.543676867  -4.671910891
  C    1.957023363  -9.362323956  -3.397142764
  C    2.451603756  -8.122697820  -3.074918296
  O    1.331055997  -6.229393486  -5.875131051
  N    0.894081144 -10.773226522  -5.108396877
  H    1.151833332 -11.617179994  -4.617038847
  H    0.624094213 -10.882579046  -6.080609221
  H    2.634840940  -5.030013673  -6.556578778
  H    2.987541153  -7.924399915  -2.129917811
  H    2.053867397 -10.194578266  -2.701864947
  H    1.727927434  -2.265883049  -2.489102103
  H   -2.747066812  -2.402667426  -4.878241664
  H   -4.402481259  -2.056859890  -0.514545420
  H    1.367340735  -3.465197819   2.067084150
  H    3.123015040  -7.972968187  -9.024078556
  H   -1.914971841   1.341766286  -5.504737374

