%mem=64gb
%nproc=28       
%Chk=snap_4.chk
# opt b3lyp/6-31g(d,p)  scf=(xqc, tight)  pop=min    

tetra snap_4 

2     1 
  O    1.445658418  -5.327374802  -7.728737233
  C    1.939413526  -3.996073061  -7.935097200
  H    2.838097459  -4.145792126  -8.572980683
  H    2.246413107  -3.570818640  -6.955011808
  C    0.930448429  -3.076424369  -8.630186904
  H    1.223019856  -2.003439192  -8.496725888
  O    1.052461169  -3.246730530 -10.078391296
  C   -0.159324700  -3.697811052 -10.655962271
  H   -0.277709663  -3.131576299 -11.616329724
  C   -0.559930989  -3.318702412  -8.279969133
  H   -0.724819126  -4.167176916  -7.565851491
  C   -1.273765796  -3.541618394  -9.619353775
  H   -1.916495270  -2.657075720  -9.847086330
  H   -1.977207203  -4.395275105  -9.584986792
  O   -1.130434564  -2.086750643  -7.758830552
  N    0.056213463  -5.148356690 -11.015141404
  C   -0.089064997  -5.701726133 -12.306338924
  C    0.340820525  -7.055538619 -12.217736707
  N    0.756808633  -7.290071151 -10.892006688
  C    0.586872899  -6.145947065 -10.183092972
  N   -0.559519649  -5.078353047 -13.425617725
  C   -0.595403750  -5.874729570 -14.550401602
  N   -0.195449923  -7.228246529 -14.551643057
  C    0.317736207  -7.926387000 -13.371313771
  N   -1.047858030  -5.304053681 -15.710008097
  H   -1.317734324  -4.322365946 -15.717622270
  H   -1.103715655  -5.803518840 -16.586277973
  O    0.636175316  -9.077529879 -13.494553895
  H    0.849443866  -5.951340112  -9.073234212
  H   -0.245761856  -7.791485815 -15.415087567
  P   -0.881110194  -1.902813997  -6.146585477
  O   -1.250704877  -0.295001398  -6.033850613
  C   -0.599579429   0.411032432  -4.950566817
  H   -0.226853479   1.342218651  -5.440610330
  H    0.271773063  -0.146034474  -4.541410922
  C   -1.613844181   0.769225332  -3.858989270
  H   -1.128701866   0.790741277  -2.845122947
  O   -1.967435082   2.177721781  -4.046543911
  C   -3.342476338   2.334742959  -4.360345388
  H   -3.689805568   3.193019076  -3.739795054
  C   -2.943681308  -0.028355351  -3.850270726
  H   -2.988037975  -0.871068416  -4.583769811
  C   -4.053843635   1.008890677  -4.095726196
  H   -4.688278650   1.063514110  -3.174011018
  H   -4.751699406   0.695862910  -4.894043893
  O   -3.230038035  -0.515593608  -2.530456328
  O    0.451322194  -2.323469697  -5.654922558
  O   -2.197398744  -2.583413825  -5.507159702
  N   -3.411953658   2.726001063  -5.811537094
  C   -3.658123148   3.991773542  -6.337572944
  C   -3.509134895   3.884114805  -7.759812100
  N   -3.141487825   2.571663755  -8.095840546
  C   -3.071861746   1.899197053  -6.947836505
  N   -4.013418874   5.206018008  -5.747003924
  C   -4.203021594   6.295595807  -6.622284012
  N   -4.080317785   6.234160644  -7.936301968
  C   -3.727359084   5.031246144  -8.585347030
  H   -4.478919165   7.270060152  -6.158208888
  N   -3.620681106   5.041483131  -9.924139171
  H   -3.784052330   5.890662362 -10.465750412
  H   -3.368839630   4.196083896 -10.435189614
  H   -2.781732338   0.849100626  -6.821216876
  P   -2.338963529  -1.783732855  -1.950146089
  O   -1.285871238  -0.835581260  -1.121358666
  C   -0.067505677  -1.448121102  -0.638807925
  H    0.542444394  -1.810567054  -1.498851287
  H    0.451960837  -0.600289480  -0.145129741
  C   -0.456471391  -2.553965289   0.340550841
  H   -0.922478210  -2.171434475   1.280259478
  O   -1.541472341  -3.266577973  -0.352639707
  C   -1.226609660  -4.690107027  -0.521683932
  H   -2.176506072  -5.192387641  -0.196008027
  C    0.642318281  -3.595935268   0.642210078
  H    1.576094014  -3.432642099   0.047789589
  C   -0.022683475  -4.953296971   0.372253198
  H    0.695528961  -5.669733940  -0.080059860
  H   -0.363854225  -5.438086581   1.320352794
  O    0.955228368  -3.395348990   2.033359462
  O   -1.721128822  -2.611545230  -3.027731752
  O   -3.553877707  -2.380781372  -1.062943436
  N   -0.983975009  -4.979908353  -1.958204371
  C    0.111409248  -4.396326654  -2.668920293
  N    0.145713140  -4.625388959  -4.067453442
  C   -0.804682665  -5.411886755  -4.779223848
  C   -1.837903246  -6.043522945  -3.968088679
  C   -1.908942651  -5.816146352  -2.629062139
  O    1.008491308  -3.777668863  -2.118945233
  H    0.814411552  -4.028483302  -4.606728145
  O   -0.672984343  -5.474898691  -6.002202983
  C   -2.789829753  -6.961099037  -4.655306923
  H   -2.809842946  -7.953937622  -4.173433388
  H   -3.815448169  -6.563866481  -4.650700699
  H   -2.510357484  -7.126827173  -5.707912263
  H   -2.670473422  -6.303345922  -1.994235469
  P    1.834052551  -4.580966848   2.776322125
  O    2.758341939  -5.060226482   1.509012166
  C    3.705267425  -6.135933933   1.766096936
  H    4.683235139  -5.627152839   1.914111154
  H    3.440502096  -6.731282022   2.664769373
  C    3.732915287  -7.037021051   0.528776129
  H    4.762418171  -7.452795515   0.368552274
  O    2.923199835  -8.214949645   0.817014469
  C    1.921874645  -8.435113564  -0.190153001
  H    1.980501321  -9.524686153  -0.428656772
  C    3.192170339  -6.422970315  -0.784312656
  H    2.721119993  -5.427427320  -0.645157996
  C    2.236473478  -7.487009250  -1.350375333
  H    1.338382133  -7.063887238  -1.839517751
  H    2.750291571  -8.044446775  -2.166359415
  O    4.333559328  -6.300935276  -1.638282244
  O    1.072160534  -5.620371609   3.476906463
  O    2.854175830  -3.680694211   3.670782238
  N    0.587188822  -8.169577739   0.470149427
  C   -0.629924770  -7.993714588  -0.339639755
  N   -1.812199041  -7.695983729   0.321660838
  C   -1.857077020  -7.679539705   1.686297315
  C   -0.688855930  -7.912018360   2.485608924
  C    0.506474808  -8.151990291   1.859462630
  O   -0.522652256  -8.047056675  -1.551716294
  N   -3.061434050  -7.321393659   2.259866919
  H   -3.205601390  -7.459339376   3.250644301
  H   -3.898280464  -7.317517381   1.689144766
  H    0.811543012  -5.351633007  -6.932611435
  H    1.438414354  -8.323680370   2.426251362
  H   -0.728134296  -7.851152375   3.574596084
  H    4.229808908  -5.534356792  -2.239432241
  H   -2.077510025  -3.013169191  -4.544410759
  H   -3.356530345  -2.673296569  -0.113955372
  H    2.671556229  -3.592360916   4.649149694
  H    1.128610592  -8.177382221 -10.564046829
  H   -4.090171515   5.307777621  -4.731868891

