%mem=64gb
%nproc=28       
%Chk=snap_86.chk
# opt b3lyp/6-31g(d,p)  scf=(xqc, tight)  pop=min    

tetra snap_86 

2     1 
  O    3.122442144  -5.047313949  -6.929447874
  C    3.304638717  -3.649293398  -6.716887815
  H    4.206348465  -3.423703607  -7.329674694
  H    3.539417916  -3.463232478  -5.644456502
  C    2.110881280  -2.801065667  -7.168606935
  H    2.363211553  -1.710096291  -7.137412245
  O    1.873129064  -3.053529822  -8.591835971
  C    0.595639030  -3.632938056  -8.800230369
  H    0.227863557  -3.229539999  -9.775495827
  C    0.767093831  -3.062930545  -6.440742281
  H    0.825593821  -3.892040051  -5.687233940
  C   -0.249095508  -3.347233769  -7.557595703
  H   -0.917657468  -2.476213277  -7.723788259
  H   -0.955703505  -4.162979387  -7.282667365
  O    0.467713426  -1.805605524  -5.795659671
  N    0.817588491  -5.122703414  -8.986180803
  C   -0.180340078  -6.117999443  -8.881476403
  C    0.487122571  -7.375132537  -8.870004973
  N    1.867882635  -7.127106394  -8.975399033
  C    2.058117790  -5.778138532  -9.034565693
  N   -1.527506107  -5.921889436  -8.822670087
  C   -2.272195275  -7.066549515  -8.679375259
  N   -1.687643776  -8.351176737  -8.580864079
  C   -0.255010657  -8.593842042  -8.648818071
  N   -3.648268626  -6.957830111  -8.739580762
  H   -4.031869318  -6.012263162  -8.624232579
  H   -4.227351793  -7.670865427  -8.308507974
  O    0.121765539  -9.736752315  -8.526217854
  H    3.020425281  -5.248386902  -9.104408557
  H   -2.281853257  -9.182561731  -8.460698128
  P   -0.520218490  -1.867627935  -4.463599057
  O   -0.809853495  -0.230491772  -4.481217639
  C   -0.284164331   0.516870339  -3.354696478
  H    0.427873419   1.248795437  -3.802017003
  H    0.269838212  -0.125948941  -2.637317877
  C   -1.451467765   1.239932249  -2.679069486
  H   -1.339040298   1.241877795  -1.562238697
  O   -1.331250581   2.644329310  -3.055321132
  C   -2.607921274   3.207985560  -3.374681908
  H   -2.748085055   4.071167258  -2.673532504
  C   -2.877748924   0.792938851  -3.103354366
  H   -2.900999608   0.175449780  -4.033231601
  C   -3.661120477   2.103054983  -3.264104607
  H   -4.312346387   2.251119908  -2.365933650
  H   -4.373078941   2.076511509  -4.109201315
  O   -3.510656763   0.076696023  -2.034009975
  O    0.183755470  -2.377893013  -3.266439689
  O   -1.778259440  -2.568457181  -5.207100615
  N   -2.475330372   3.767302059  -4.755267484
  C   -1.974306866   3.175759565  -5.912076075
  C   -1.941909198   4.199043537  -6.917552492
  N   -2.410247254   5.406307837  -6.378222155
  C   -2.712028938   5.154504530  -5.107800632
  N   -1.562791119   1.879463465  -6.211266876
  C   -1.073178552   1.659850663  -7.509786890
  N   -1.024816909   2.573806639  -8.466958505
  C   -1.451239130   3.898548962  -8.227503354
  H   -0.712310893   0.630407215  -7.732988238
  N   -1.366667224   4.789615782  -9.228878728
  H   -1.005462394   4.530932925 -10.146615075
  H   -1.656004464   5.760091039  -9.093394295
  H   -3.100411139   5.867997889  -4.383348415
  P   -2.968822413  -1.478416582  -1.809993657
  O   -1.968861870  -1.144069448  -0.575963351
  C   -0.913618831  -2.118336129  -0.325376940
  H   -0.299257843  -2.264812824  -1.240854195
  H   -0.298965383  -1.613692955   0.455975344
  C   -1.582524260  -3.388236800   0.182001991
  H   -1.949243434  -3.298772472   1.231507770
  O   -2.796173808  -3.502778325  -0.647075338
  C   -3.018256080  -4.896908606  -1.048576874
  H   -4.066562592  -5.094608695  -0.708919422
  C   -0.817980124  -4.711550581  -0.062311053
  H   -0.120825306  -4.633702171  -0.943788577
  C   -1.953038657  -5.718775623  -0.333478862
  H   -1.597645216  -6.606643848  -0.892223505
  H   -2.325977491  -6.129039926   0.634679231
  O   -0.153412951  -5.172707201   1.101685636
  O   -2.343471160  -1.985008113  -3.079841555
  O   -4.411453878  -2.108868796  -1.412124003
  N   -2.984113521  -4.959479074  -2.538404962
  C   -1.846477838  -5.427262864  -3.276232720
  N   -2.053897970  -5.657997764  -4.655884665
  C   -3.290657508  -5.440000658  -5.343069392
  C   -4.311317485  -4.731551990  -4.556977800
  C   -4.150525722  -4.538978709  -3.224936834
  O   -0.766293614  -5.655683000  -2.762872674
  H   -1.247560446  -6.045186516  -5.196042877
  O   -3.383724330  -5.847289716  -6.484332687
  C   -5.531754473  -4.289451656  -5.285974286
  H   -6.358716393  -5.008908041  -5.153873867
  H   -5.896394754  -3.309471116  -4.945825777
  H   -5.357415316  -4.211054120  -6.371931286
  H   -4.921483604  -4.040389888  -2.611211091
  P    1.320799868  -4.508134604   1.518190142
  O    2.453089059  -5.530098990   0.909591551
  C    2.265427152  -6.277488830  -0.299378105
  H    2.851447818  -7.206951231  -0.092649373
  H    1.216192517  -6.563689712  -0.478129307
  C    2.922248574  -5.492696672  -1.443183978
  H    3.860652923  -4.991376873  -1.089548963
  O    3.376780660  -6.480489042  -2.420076242
  C    2.913318712  -6.173168355  -3.740468410
  H    3.816425211  -6.281617074  -4.392994382
  C    2.015193422  -4.514458415  -2.213598472
  H    0.920270384  -4.611187194  -1.973498820
  C    2.292379909  -4.779894709  -3.695929221
  H    1.355635947  -4.685938479  -4.294340439
  H    3.001237332  -4.020524755  -4.097224083
  O    2.448221595  -3.191248525  -1.843632605
  O    1.458205150  -4.229014371   2.931920477
  O    1.308787528  -3.248937662   0.463591363
  N    1.942538961  -7.270989724  -4.128277452
  C    0.999057271  -7.137473843  -5.225790572
  N    0.347848937  -8.245214761  -5.699454687
  C    0.533078150  -9.468292569  -5.091476406
  C    1.323497597  -9.582952705  -3.893102123
  C    2.028858836  -8.493262907  -3.459402830
  O    0.825019441  -6.015458084  -5.728230405
  N   -0.071420835 -10.544580343  -5.676024021
  H    0.097966328 -11.484726787  -5.343759082
  H   -0.442012382 -10.458768675  -6.622631733
  H    2.367583340  -5.413542671  -6.382442324
  H    2.704070318  -8.536313137  -2.584089287
  H    1.377776784 -10.529303483  -3.353570367
  H    1.832436897  -2.531878653  -2.292234075
  H   -2.558663640  -2.853747094  -4.586250099
  H   -4.580104666  -2.283457604  -0.429770179
  H    2.092336577  -3.108085214  -0.194403005
  H    2.575436350  -7.855217530  -8.997460720
  H   -1.514512317   1.137335743  -5.485285970

