%mem=64gb
%nproc=28       
%Chk=snap_188.chk
# opt b3lyp/6-31g(d,p)  scf=(xqc, tight)  pop=min    

tetra snap_188 

2     1 
  O    2.730429151  -4.137589250  -4.757141463
  C    2.815994172  -2.965310928  -5.575786234
  H    3.827764435  -3.056056713  -6.029902499
  H    2.783933178  -2.077443807  -4.911987683
  C    1.741565525  -2.870022646  -6.663210015
  H    1.685764310  -1.835730258  -7.089143230
  O    2.149644077  -3.668825112  -7.814917698
  C    1.255608639  -4.747289673  -8.045945876
  H    1.093479032  -4.773799436  -9.155120567
  C    0.345859049  -3.380225672  -6.239177718
  H    0.318980863  -3.695875856  -5.163840423
  C    0.011022753  -4.545092682  -7.181196058
  H   -0.877733615  -4.291542354  -7.802568127
  H   -0.292475635  -5.446538861  -6.606727684
  O   -0.563591965  -2.289152069  -6.518049855
  N    2.000374086  -6.008227829  -7.678457209
  C    2.338883873  -7.036941243  -8.577586809
  C    3.109931319  -7.988980582  -7.846359909
  N    3.243708311  -7.508905149  -6.527657315
  C    2.587252709  -6.329045259  -6.437702227
  N    1.998812060  -7.131867128  -9.899333290
  C    2.466715836  -8.253185867 -10.535783371
  N    3.242997801  -9.244940925  -9.886177227
  C    3.618231599  -9.173263103  -8.483632190
  N    2.140447144  -8.417154714 -11.856413949
  H    1.606501015  -7.691092788 -12.332010241
  H    2.504117340  -9.166615039 -12.426410069
  O    4.284396498 -10.089864602  -8.055147172
  H    2.527981625  -5.632357939  -5.536192628
  H    3.574498495 -10.076834957 -10.396369227
  P   -1.588422510  -1.937212961  -5.273534042
  O   -2.567117476  -0.812523962  -5.966187927
  C   -1.929609291   0.433527741  -6.327117566
  H   -2.742302695   0.962569770  -6.868429298
  H   -1.099172497   0.255134082  -7.041109396
  C   -1.476081305   1.211127083  -5.083076478
  H   -0.437741333   0.951335151  -4.747933049
  O   -1.373605315   2.606417526  -5.480116759
  C   -2.266047884   3.430279870  -4.729624743
  H   -1.651974708   4.323459475  -4.437069714
  C   -2.475267055   1.146600896  -3.897637832
  H   -3.381383945   0.540653129  -4.133187563
  C   -2.806191583   2.611971983  -3.563125227
  H   -2.270026778   2.881107325  -2.613996784
  H   -3.865227276   2.779853784  -3.306300185
  O   -1.767947461   0.641404905  -2.760026488
  O   -0.740268173  -1.494055149  -4.101714585
  O   -2.429327152  -3.304756594  -5.235290241
  N   -3.298463572   3.915553578  -5.702301620
  C   -4.589310921   3.486165296  -6.001455552
  C   -5.054787824   4.311865091  -7.080698340
  N   -4.045217947   5.205681677  -7.466995068
  C   -3.012560847   4.962238428  -6.665794291
  N   -5.421751689   2.509029891  -5.464325241
  C   -6.730679016   2.442345637  -5.973381739
  N   -7.200740528   3.189714686  -6.961159445
  C   -6.389583779   4.165061931  -7.573956677
  H   -7.405086245   1.690836665  -5.499402717
  N   -6.908239400   4.896908247  -8.574986695
  H   -7.869639139   4.768395827  -8.887114034
  H   -6.352808255   5.617695187  -9.036814168
  H   -2.044332717   5.459270067  -6.685680189
  P   -2.082858042  -0.935202476  -2.360327982
  O   -0.726963528  -1.361340449  -1.572913280
  C   -0.299579221  -2.729888539  -1.729919240
  H    0.091253492  -2.878542710  -2.757477196
  H    0.553802188  -2.779590656  -1.018064373
  C   -1.433160392  -3.681832126  -1.328369655
  H   -1.207291756  -4.200977464  -0.365232524
  O   -2.596651401  -2.832160645  -1.085312992
  C   -3.823441386  -3.652536412  -1.233011542
  H   -4.129231135  -3.892166862  -0.183165713
  C   -1.934771463  -4.690991261  -2.394135050
  H   -1.793964215  -4.366818241  -3.454264469
  C   -3.417267512  -4.885991317  -2.043233605
  H   -4.040962509  -5.056431735  -2.952312826
  H   -3.546334885  -5.823799734  -1.455021010
  O   -1.301906845  -5.979772400  -2.172965519
  O   -2.916081626  -1.630750825  -3.433050452
  O   -3.011274065  -0.548414552  -1.045562811
  N   -4.846631314  -2.736214590  -1.808147979
  C   -4.989043590  -2.586773134  -3.223656625
  N   -5.516610789  -1.356847780  -3.705950764
  C   -5.773661736  -0.229699430  -2.878241937
  C   -5.784918453  -0.505495224  -1.441928285
  C   -5.278383984  -1.672090730  -0.962354434
  O   -4.805457181  -3.508748061  -4.010420354
  H   -5.530834116  -1.247047950  -4.730057031
  O   -5.946341136   0.848636571  -3.441555301
  C   -6.289119744   0.563329320  -0.536464806
  H   -5.459964837   1.047908289   0.006198852
  H   -6.817904517   1.359736091  -1.084985175
  H   -6.996427711   0.175795385   0.213121900
  H   -5.191076561  -1.862866161   0.116301389
  P    0.230142912  -6.064120178  -2.741869557
  O    1.007013594  -5.214024631  -1.553570894
  C    2.434010151  -5.390890011  -1.420944504
  H    2.928877781  -5.667960075  -2.378563721
  H    2.771031008  -4.369203678  -1.132500985
  C    2.697464065  -6.386569108  -0.288962940
  H    1.943630241  -6.262302197   0.527132175
  O    2.462973846  -7.758325949  -0.739112313
  C    3.654273193  -8.567750572  -0.615758308
  H    3.391148464  -9.319342559   0.172052394
  C    4.161212576  -6.324734244   0.230332784
  H    4.720206814  -5.421075234  -0.112270490
  C    4.809907299  -7.637771866  -0.238300508
  H    5.489430982  -7.449707676  -1.097527484
  H    5.466464201  -8.064975841   0.546171223
  O    4.185833743  -6.157890116   1.634326009
  O    0.473349978  -5.393409364  -4.051514706
  O    0.580414975  -7.625008848  -2.609885790
  N    3.856876850  -9.276763901  -1.914167292
  C    3.816194048  -8.577821740  -3.196477042
  N    4.132212901  -9.275421448  -4.343592605
  C    4.492989204 -10.599062241  -4.288891641
  C    4.503823997 -11.309692444  -3.027551754
  C    4.188809836 -10.637872728  -1.883683123
  O    3.473340069  -7.404216887  -3.214676480
  N    4.835962833 -11.200193920  -5.456921150
  H    5.111103326 -12.170606154  -5.502701003
  H    4.802579277 -10.684855880  -6.343163412
  H    1.826990664  -4.225760383  -4.317049105
  H    4.190839777 -11.139348053  -0.903506046
  H    4.760551035 -12.369846342  -3.000334425
  H    3.812078041  -6.926573997   2.120857634
  H   -3.391810067  -3.265856731  -4.838889426
  H   -2.579575962  -0.687450169  -0.155227655
  H    1.547504501  -7.839147388  -2.270800900
  H    3.726934652  -8.028791583  -5.758095969
  H   -5.147339197   1.895570121  -4.663329594

