%mem=64gb
%nproc=28       
%Chk=snap_173.chk
# opt b3lyp/6-31g(d,p)  scf=(xqc, tight)  pop=min    

tetra snap_173 

2     1 
  O    3.440509706  -4.213517734  -4.432189774
  C    3.796949615  -2.992489611  -5.094142016
  H    4.725279828  -3.266771410  -5.644045982
  H    4.043294922  -2.243737535  -4.314925316
  C    2.731318385  -2.455740691  -6.053496548
  H    2.965430388  -1.407362143  -6.377777877
  O    2.788079787  -3.199806420  -7.305994006
  C    1.600459548  -3.949895249  -7.522311029
  H    1.306542311  -3.754956975  -8.586253805
  C    1.280382285  -2.564823559  -5.531448635
  H    1.233873033  -2.854930107  -4.451459629
  C    0.575706308  -3.571375225  -6.452158362
  H   -0.344195543  -3.140638232  -6.907917521
  H    0.213723411  -4.447083079  -5.861798033
  O    0.755682725  -1.226699326  -5.715224935
  N    1.995384529  -5.402139547  -7.430602238
  C    1.760951174  -6.375664916  -8.418819667
  C    2.359689336  -7.584389536  -7.955942386
  N    2.953646207  -7.317776349  -6.706222565
  C    2.731003937  -6.020156828  -6.399770685
  N    1.080761000  -6.224755509  -9.597464943
  C    1.001661783  -7.359628198 -10.363353866
  N    1.582383970  -8.596634979  -9.985613087
  C    2.309805029  -8.787407051  -8.742083153
  N    0.302915331  -7.283732598 -11.540386891
  H   -0.084724680  -6.388932710 -11.833631549
  H    0.248926770  -8.044970800 -12.200853691
  O    2.764873802  -9.890480388  -8.530859228
  H    3.085830091  -5.449251016  -5.471138365
  H    1.507647582  -9.423031795 -10.597195611
  P   -0.588911727  -0.871294789  -4.841270708
  O   -0.951833952   0.596249333  -5.520580989
  C   -0.352400594   1.771407964  -4.919398176
  H   -0.130806923   2.417340688  -5.802859105
  H    0.597468935   1.527262390  -4.399694405
  C   -1.341165141   2.454577029  -3.979094872
  H   -0.796955098   3.018889811  -3.180437504
  O   -2.063934410   3.465394865  -4.760678776
  C   -3.407109307   3.605461910  -4.268169232
  H   -3.527284180   4.684062492  -4.000699127
  C   -2.466953349   1.584501876  -3.367012291
  H   -2.825989862   0.796154424  -4.079079868
  C   -3.593367924   2.600974919  -3.123367294
  H   -3.487538503   3.075554929  -2.123672513
  H   -4.600337441   2.129624824  -3.103355618
  O   -1.965395883   1.042094361  -2.148354167
  O   -0.276617184  -0.841064041  -3.378994653
  O   -1.667923766  -1.755156333  -5.639321571
  N   -4.327807703   3.318441633  -5.414417888
  C   -4.362043005   2.225480084  -6.274339285
  C   -5.589214414   2.313513819  -7.013878897
  N   -6.296400055   3.457565505  -6.615008793
  C   -5.558129630   4.040140738  -5.672980553
  N   -3.471485205   1.180839511  -6.507104395
  C   -3.857190622   0.215320809  -7.442669648
  N   -5.007575612   0.222546309  -8.104052500
  C   -5.923279907   1.284673328  -7.946359972
  H   -3.141592025  -0.623008376  -7.615967062
  N   -7.052567506   1.269303784  -8.678307074
  H   -7.249741101   0.522246428  -9.339253180
  H   -7.745582878   2.011490370  -8.581231792
  H   -5.798187410   4.956911258  -5.140779797
  P   -2.159580866  -0.610880571  -2.050098681
  O   -1.011661377  -1.049446343  -0.991090650
  C   -0.419304366  -2.354941815  -1.180523071
  H    0.209863605  -2.361988012  -2.095221398
  H    0.253266007  -2.417129775  -0.295442059
  C   -1.513148179  -3.426610987  -1.148819493
  H   -1.486002772  -4.012587529  -0.198867605
  O   -2.779584322  -2.697482019  -1.166830875
  C   -3.842086226  -3.597062148  -1.683298529
  H   -4.396248583  -3.926134649  -0.768503452
  C   -1.632204979  -4.372902439  -2.369672557
  H   -1.284695092  -3.926693440  -3.330008211
  C   -3.123754557  -4.737829388  -2.407200359
  H   -3.481981815  -4.904057167  -3.449020453
  H   -3.288035915  -5.715779336  -1.899606613
  O   -0.936962375  -5.601833225  -2.048419201
  O   -2.507669053  -1.153936480  -3.430417696
  O   -3.480799865  -0.513968434  -1.067328468
  N   -4.738484411  -2.747280989  -2.502975900
  C   -4.400632745  -2.423848501  -3.852215768
  N   -5.025152341  -1.287610526  -4.418178002
  C   -5.791598879  -0.328155178  -3.671077249
  C   -6.209475193  -0.799790521  -2.343843416
  C   -5.650648159  -1.905143380  -1.794433195
  O   -3.694167882  -3.145464397  -4.556945543
  H   -4.741869681  -1.035223839  -5.368166093
  O   -5.979298643   0.746859350  -4.206828323
  C   -7.230623702   0.024953595  -1.643243636
  H   -7.762952556  -0.523092870  -0.852271342
  H   -6.769119278   0.910032530  -1.174157068
  H   -8.000650039   0.400898497  -2.339693960
  H   -5.889332302  -2.230255930  -0.772844043
  P    0.586382637  -5.698898773  -2.629536221
  O    1.471809768  -5.180418322  -1.344825916
  C    2.871052127  -5.555303044  -1.328365071
  H    3.293259822  -5.745742274  -2.341226712
  H    3.350440727  -4.640321805  -0.910215730
  C    3.042354784  -6.745263553  -0.381998746
  H    2.359436669  -6.670811492   0.505329994
  O    2.604863248  -7.974448290  -1.041215043
  C    3.631820753  -8.987522876  -0.994039420
  H    3.224687529  -9.766310893  -0.300084081
  C    4.516754515  -6.956046465   0.048179875
  H    5.203610482  -6.146042656  -0.276024132
  C    4.928194785  -8.328346517  -0.513630907
  H    5.670206170  -8.220495165  -1.329786166
  H    5.428301510  -8.940767016   0.264092019
  O    4.439538181  -6.978958291   1.473029120
  O    0.852360919  -4.807929180  -3.802206993
  O    0.767464231  -7.278368059  -2.839124312
  N    3.732247241  -9.564651042  -2.372716927
  C    3.672589403  -8.722242879  -3.560626105
  N    3.718964965  -9.325288828  -4.801400421
  C    3.858712197 -10.685883592  -4.925033289
  C    3.974483152 -11.521461257  -3.750699756
  C    3.898500937 -10.946757629  -2.515040151
  O    3.537021172  -7.513756744  -3.419239647
  N    3.882312008 -11.194104322  -6.185334393
  H    3.961457677 -12.185367645  -6.361979895
  H    3.727827835 -10.592883651  -7.000777838
  H    2.522365119  -4.157891662  -4.005853769
  H    3.970985795 -11.548897930  -1.596052958
  H    4.114149462 -12.597751860  -3.858276865
  H    5.322963203  -6.881837486   1.892077473
  H   -2.475768327  -2.154240827  -5.096364532
  H   -3.353926935  -0.822929238  -0.124142446
  H    1.697840491  -7.676596167  -2.573591131
  H    3.412963117  -8.045600267  -6.097169532
  H   -2.529804019   1.159265279  -6.048710370

