%mem=64gb
%nproc=28       
%Chk=snap_43.chk
# opt b3lyp/6-31g(d,p)  scf=(xqc, tight)  pop=min    

tetra snap_43 

2     1 
  O    1.799834249  -4.679017864  -6.896794797
  C    2.126064660  -3.505611738  -7.665961469
  H    3.120450382  -3.763358349  -8.095774584
  H    2.249232474  -2.647834333  -6.966622975
  C    1.122758022  -3.189458575  -8.774070086
  H    1.338064021  -2.184534920  -9.221595314
  O    1.358852431  -4.108253408  -9.892914849
  C    0.158539225  -4.753572291 -10.288571589
  H    0.176695369  -4.804078528 -11.405753478
  C   -0.376395874  -3.346084952  -8.403979955
  H   -0.549068292  -3.972503580  -7.483975579
  C   -1.009272913  -4.005835668  -9.635339687
  H   -1.429208641  -3.230263377 -10.313995872
  H   -1.863735231  -4.657407467  -9.374074330
  O   -0.997404637  -2.049379480  -8.240246154
  N    0.248935576  -6.168984580  -9.764037666
  C   -0.247500266  -7.326470617 -10.399750451
  C    0.054098329  -8.423002813  -9.544103400
  N    0.722079597  -7.911516714  -8.410421650
  C    0.833114551  -6.569171704  -8.553154970
  N   -0.895960111  -7.405655026 -11.601440903
  C   -1.244953110  -8.680645317 -11.979506049
  N   -0.969171030  -9.825524789 -11.198924459
  C   -0.300279989  -9.775007444  -9.899300458
  N   -1.918186062  -8.825648579 -13.165708127
  H   -2.092737180  -8.008732380 -13.747594000
  H   -2.147836361  -9.726691785 -13.557680673
  O   -0.134743381 -10.813399369  -9.314283531
  H    1.336726599  -5.811346110  -7.804584514
  H   -1.240285774 -10.763935771 -11.527344530
  P   -0.606231753  -1.369974818  -6.784029572
  O   -1.858757345  -0.317953838  -6.524098693
  C   -1.488874404   1.074601764  -6.479983893
  H   -2.467310781   1.582307343  -6.605580384
  H   -0.827375009   1.359291496  -7.324080188
  C   -0.837555394   1.386070086  -5.122023654
  H    0.245871151   1.087124902  -5.068086876
  O   -0.796476863   2.841009023  -4.982140814
  C   -1.683482964   3.276747366  -3.955791972
  H   -1.161151409   4.127945385  -3.449889689
  C   -1.645487331   0.839100202  -3.916118238
  H   -2.535210303   0.240830226  -4.225201740
  C   -2.007697911   2.078786810  -3.071878437
  H   -1.363861267   2.094049763  -2.155244130
  H   -3.035479106   2.037757602  -2.674070304
  O   -0.690913198   0.052186054  -3.193898748
  O    0.724032633  -0.741715982  -6.710259926
  O   -0.934314129  -2.595837617  -5.805507718
  N   -2.883142473   3.828610607  -4.680635916
  C   -2.822760984   4.766297974  -5.709086963
  C   -4.169089219   5.001210188  -6.138249083
  N   -5.041424308   4.188299832  -5.400510883
  C   -4.280426978   3.494015305  -4.553095237
  N   -1.746961488   5.435024858  -6.293001927
  C   -2.071698670   6.371629227  -7.293613502
  N   -3.300488451   6.636971177  -7.704976858
  C   -4.421001652   5.970338421  -7.162633472
  H   -1.226246416   6.927972117  -7.758983454
  N   -5.637455518   6.282742347  -7.634472672
  H   -5.763003465   6.989890546  -8.360007217
  H   -6.477000343   5.831754656  -7.268157205
  H   -4.630927861   2.764783624  -3.826515529
  P   -1.187244386  -1.308638144  -2.404003130
  O   -0.432282693  -1.014714426  -1.000999660
  C   -0.043840086  -2.214624768  -0.273654535
  H    0.621467958  -2.851867220  -0.900393643
  H    0.560806545  -1.814893027   0.569439363
  C   -1.331380362  -2.894762621   0.184975710
  H   -1.878302592  -2.325430607   0.971241372
  O   -2.214957022  -2.853556977  -0.995875814
  C   -2.764000622  -4.193500575  -1.295199602
  H   -3.861495734  -3.993137060  -1.360723375
  C   -1.171428319  -4.382814865   0.550852369
  H   -0.182763740  -4.798698467   0.187272099
  C   -2.357833555  -5.088332813  -0.126856393
  H   -2.082833603  -6.119284340  -0.436034000
  H   -3.187144139  -5.218236634   0.602667510
  O   -1.324842186  -4.478819782   1.974359764
  O   -0.824393349  -2.495240382  -3.235200553
  O   -2.777162802  -0.926994360  -2.262896345
  N   -2.261751742  -4.646177185  -2.612239926
  C   -0.909602805  -5.115024065  -2.766477562
  N   -0.501844793  -5.467343848  -4.071155073
  C   -1.280999765  -5.263021889  -5.234112037
  C   -2.639543748  -4.738957759  -5.010470484
  C   -3.060697471  -4.414991139  -3.762163590
  O   -0.175087209  -5.284352167  -1.811997296
  H    0.450461334  -5.940742760  -4.138150734
  O   -0.761556024  -5.530193115  -6.315949656
  C   -3.486485322  -4.547041339  -6.220066241
  H   -3.323439636  -3.544981868  -6.652886447
  H   -3.235433480  -5.278397723  -7.005345755
  H   -4.560107436  -4.655057272  -6.015302505
  H   -4.053621089  -3.986245101  -3.578813333
  P   -0.219415449  -5.391988887   2.794250853
  O    0.342050817  -6.268570649   1.520540314
  C    1.622827772  -6.923286951   1.584954972
  H    1.863124138  -7.267378574   2.606758788
  H    1.449054014  -7.813209648   0.939825391
  C    2.726135186  -6.022134873   0.995832120
  H    3.327080294  -5.530634089   1.791977628
  O    3.665488081  -6.921194316   0.334989461
  C    3.673958980  -6.712576470  -1.096157467
  H    4.733230000  -6.894688870  -1.394831257
  C    2.252777112  -5.028932446  -0.096475938
  H    1.160791458  -5.170788641  -0.338501930
  C    3.152674061  -5.298363439  -1.310869914
  H    2.595641811  -5.161237321  -2.268821394
  H    3.984537606  -4.571300761  -1.376871371
  O    2.298042588  -3.672460339   0.312427023
  O   -0.719650578  -6.054125443   3.989764125
  O    1.033720185  -4.350998254   3.036854866
  N    2.811192170  -7.804933258  -1.682983213
  C    1.969476679  -7.640223233  -2.874680699
  N    1.132031495  -8.679381742  -3.235154806
  C    1.138378793  -9.853151986  -2.538528437
  C    2.018265246 -10.062778947  -1.415642803
  C    2.824136792  -9.031223501  -1.019583404
  O    2.047475364  -6.599969732  -3.517951844
  N    0.264472892 -10.827643619  -2.946900912
  H    0.248241009 -11.737660991  -2.516196982
  H   -0.333096221 -10.680271719  -3.747811627
  H    0.941589337  -4.567335166  -6.390649727
  H    3.507333949  -9.126640007  -0.156683301
  H    2.044958566 -11.019924101  -0.899611318
  H    3.175571741  -3.412076869   0.664624180
  H   -0.863119681  -2.453821355  -4.730838468
  H   -3.292143001  -1.360193524  -1.511661591
  H    1.194050913  -4.029352160   3.963496762
  H    1.038153814  -8.478269883  -7.628440378
  H   -0.779922488   5.182591948  -6.049424199

