%mem=64gb
%nproc=28       
%Chk=snap_83.chk
# opt b3lyp/6-31g(d,p)  scf=(xqc, tight)  pop=min    

tetra snap_83 

2     1 
  O    3.239105808  -5.474008989  -6.978192010
  C    3.358506104  -4.055832065  -7.071832245
  H    4.204080197  -3.933339545  -7.786393735
  H    3.653296724  -3.643572936  -6.085375754
  C    2.099324408  -3.363052593  -7.600445447
  H    2.286022218  -2.272460071  -7.770168435
  O    1.835004421  -3.884137052  -8.946533386
  C    0.544217077  -4.463740964  -9.023339230
  H    0.157881046  -4.237627736 -10.046899550
  C    0.795782632  -3.561839063  -6.784883142
  H    0.899259236  -4.324688554  -5.968842778
  C   -0.261561545  -3.949540509  -7.831726717
  H   -0.875596421  -3.069030821  -8.123250240
  H   -1.008198761  -4.667539355  -7.426659665
  O    0.525444180  -2.267289335  -6.215062606
  N    0.735908128  -5.969497101  -8.940931709
  C   -0.293938340  -6.908817108  -8.713334845
  C    0.335082560  -8.160499914  -8.457832394
  N    1.724839662  -7.965843849  -8.550291044
  C    1.955807380  -6.651517211  -8.831227474
  N   -1.639178417  -6.683857554  -8.760754033
  C   -2.416036322  -7.782671984  -8.490477624
  N   -1.871892526  -9.030946326  -8.106291364
  C   -0.446222494  -9.305738085  -8.051659663
  N   -3.779280483  -7.693107929  -8.721831451
  H   -4.144915348  -6.749563007  -8.874737741
  H   -4.409559722  -8.261916161  -8.159842786
  O   -0.102578452 -10.410001194  -7.696468549
  H    2.936870846  -6.158966111  -8.946842139
  H   -2.497256954  -9.811331558  -7.860910468
  P   -0.562999569  -2.194049857  -4.962547714
  O   -1.087979329  -0.651769976  -5.289097320
  C   -0.456839379   0.377261349  -4.508919228
  H   -0.247447132   1.180003245  -5.253355322
  H    0.508368509   0.062747251  -4.056555734
  C   -1.445013998   0.872067346  -3.439716529
  H   -1.192091055   0.497445882  -2.413697430
  O   -1.222137119   2.314751742  -3.377080064
  C   -2.480373707   2.987756149  -3.141150895
  H   -2.526888654   3.233959957  -2.049040038
  C   -2.944246738   0.670223623  -3.795005561
  H   -3.092251744   0.212276076  -4.803016967
  C   -3.587290445   2.059904808  -3.651442110
  H   -4.437792884   1.994347838  -2.928607119
  H   -4.049866463   2.399303628  -4.597212144
  O   -3.647969816  -0.122390716  -2.828034051
  O    0.139584198  -2.345728033  -3.663833043
  O   -1.642733491  -3.244837982  -5.562851125
  N   -2.377819320   4.255097087  -3.909489020
  C   -1.712124574   4.468549122  -5.110320526
  C   -1.889383889   5.851617266  -5.439834519
  N   -2.652814245   6.476928898  -4.442788193
  C   -2.934675703   5.540934716  -3.539938464
  N   -0.986078685   3.610622417  -5.934251398
  C   -0.438315068   4.190692794  -7.095298874
  N   -0.581302736   5.457826575  -7.443791565
  C   -1.298496857   6.370273037  -6.636230790
  H    0.141810763   3.521104086  -7.767183709
  N   -1.377661606   7.647953789  -7.035169505
  H   -0.933400662   7.969221926  -7.896377660
  H   -1.883375258   8.342068019  -6.481795588
  H   -3.510050183   5.670208365  -2.625289901
  P   -3.093337964  -1.641550952  -2.471310946
  O   -2.156203848  -1.134493939  -1.240186270
  C   -1.078636266  -2.023718039  -0.832646454
  H   -0.417660797  -2.240885264  -1.701863854
  H   -0.522475369  -1.406273619  -0.090299562
  C   -1.724485383  -3.253148340  -0.210319305
  H   -2.119731987  -3.064800284   0.815389577
  O   -2.914952459  -3.486653345  -1.047330152
  C   -3.111906908  -4.923069351  -1.264267434
  H   -4.153110231  -5.093551098  -0.889067189
  C   -0.921263191  -4.573449636  -0.293554781
  H   -0.205378630  -4.577220942  -1.162648290
  C   -2.024603742  -5.635666999  -0.467471616
  H   -1.639791854  -6.563566970  -0.933094148
  H   -2.387540618  -5.961949897   0.535639774
  O   -0.273139486  -4.889529125   0.928425471
  O   -2.427682041  -2.284628178  -3.648123736
  O   -4.540233454  -2.254943542  -2.053741290
  N   -3.087032368  -5.178469162  -2.731957284
  C   -1.942997523  -5.712759693  -3.412673454
  N   -2.186778491  -6.235352961  -4.703951734
  C   -3.456496894  -6.214304756  -5.363952788
  C   -4.476805723  -5.383983324  -4.707673379
  C   -4.285803441  -4.928078082  -3.446952523
  O   -0.831417412  -5.753503085  -2.916354416
  H   -1.381193175  -6.684961175  -5.189269160
  O   -3.576399499  -6.867123884  -6.384306535
  C   -5.723705749  -5.102878689  -5.470733427
  H   -5.618999393  -5.345905999  -6.539939770
  H   -6.571651479  -5.701330757  -5.095934037
  H   -6.018067314  -4.044202163  -5.409852854
  H   -5.051328818  -4.335035152  -2.916399658
  P    1.149636891  -4.115227186   1.328775528
  O    2.347606540  -5.135102954   0.858812516
  C    2.248224908  -5.980913556  -0.293948722
  H    2.870870697  -6.858605271   0.008011008
  H    1.222897936  -6.336258467  -0.489226071
  C    2.914099869  -5.253243968  -1.469050670
  H    3.791982779  -4.652481726  -1.114841920
  O    3.498738929  -6.281823065  -2.326762592
  C    3.039778567  -6.163189915  -3.678755742
  H    3.952431378  -6.324022079  -4.305123741
  C    1.983186874  -4.418101241  -2.372442227
  H    0.886470392  -4.578874384  -2.180914587
  C    2.371527624  -4.795937454  -3.805680024
  H    1.482613339  -4.784435350  -4.478227577
  H    3.085262236  -4.048181186  -4.213782828
  O    2.306509039  -3.042632241  -2.102709880
  O    1.223902950  -3.707285571   2.717080848
  O    1.116456101  -2.954231099   0.172454714
  N    2.099457318  -7.328878562  -3.916381143
  C    1.105567189  -7.342951137  -4.977255402
  N    0.368893295  -8.477924603  -5.204569503
  C    0.548532858  -9.589370185  -4.414199956
  C    1.456469962  -9.563410118  -3.297115161
  C    2.218608182  -8.446399802  -3.088978764
  O    0.967948701  -6.333976898  -5.680705098
  N   -0.185867022 -10.696518999  -4.737074948
  H   -0.024435436 -11.580205448  -4.273589230
  H   -0.637127692 -10.743862457  -5.650557460
  H    2.506491826  -5.747233079  -6.354869843
  H    2.965068293  -8.387697759  -2.275360911
  H    1.551212743 -10.429094283  -2.641561041
  H    1.684236396  -2.457871362  -2.647505572
  H   -2.442342618  -3.464567737  -4.949415252
  H   -4.790466741  -2.209716032  -1.077976111
  H    1.899760171  -2.843606546  -0.495006273
  H    2.411437893  -8.700825502  -8.414967828
  H   -0.786674855   2.642180879  -5.612554990

