%mem=64gb
%nproc=28       
%Chk=snap_18.chk
# opt b3lyp/6-31g(d,p)  scf=(xqc, tight)  pop=min    

tetra snap_18 

2     1 
  O    0.560356495  -5.854088620  -7.358457040
  C    1.317932349  -4.643989015  -7.221621010
  H    2.291931190  -4.892848628  -7.699102353
  H    1.484588127  -4.431361015  -6.145018967
  C    0.670723654  -3.442959138  -7.918126789
  H    1.070656867  -2.488435723  -7.491892119
  O    1.161413246  -3.381474137  -9.293618222
  C    0.120865309  -3.591959751 -10.231154246
  H    0.316904153  -2.878061860 -11.073611288
  C   -0.877302034  -3.477839492  -7.996822105
  H   -1.338149661  -4.359660456  -7.482804495
  C   -1.213303932  -3.441280551  -9.495951582
  H   -1.692519223  -2.460441349  -9.735389727
  H   -1.969860746  -4.197886639  -9.778033346
  O   -1.456630492  -2.258091337  -7.468028040
  N    0.314470938  -4.986271862 -10.780145207
  C    0.692357069  -5.301857234 -12.106261799
  C    0.947109491  -6.702614683 -12.134480559
  N    0.747927614  -7.204804106 -10.834848761
  C    0.383313276  -6.173859468 -10.033060207
  N    0.788170155  -4.451571095 -13.168278784
  C    1.185545357  -5.048254224 -14.347093181
  N    1.469608813  -6.425643360 -14.459732049
  C    1.363246459  -7.369560637 -13.347051182
  N    1.297263713  -4.243855806 -15.448973117
  H    1.101370434  -3.248124469 -15.368376751
  H    1.602316096  -4.581507799 -16.350738792
  O    1.621081216  -8.523858153 -13.559522160
  H    0.202434569  -6.201907730  -8.900629479
  H    1.773335220  -6.830385143 -15.358896771
  P   -1.366203676  -2.086128839  -5.837423409
  O   -1.483742144  -0.433143693  -5.800675280
  C   -0.651217607   0.239350620  -4.828791503
  H   -0.079657882   0.985677113  -5.428562129
  H    0.065659300  -0.448789739  -4.327877487
  C   -1.545718631   0.952311438  -3.810822081
  H   -1.047360830   1.008241858  -2.803364694
  O   -1.614414370   2.360851086  -4.206331889
  C   -2.946466797   2.764497838  -4.470022587
  H   -3.053928567   3.758075328  -3.975693664
  C   -3.007935273   0.443568615  -3.700829310
  H   -3.256548804  -0.400690571  -4.386817475
  C   -3.892586103   1.673552423  -3.967738356
  H   -4.386101399   1.973962619  -3.008357957
  H   -4.731899523   1.444857823  -4.650709423
  O   -3.304307369   0.092986155  -2.338411066
  O   -0.178881242  -2.687255971  -5.188146994
  O   -2.798656381  -2.511221523  -5.274383987
  N   -3.066794087   2.950802769  -5.959291918
  C   -3.242456392   4.147728531  -6.647150330
  C   -3.338038612   3.816598409  -8.039325411
  N   -3.178818278   2.431366825  -8.202013312
  C   -3.007520988   1.928743226  -6.979100837
  N   -3.337849228   5.472632526  -6.217745893
  C   -3.526435326   6.443806702  -7.222073595
  N   -3.643232577   6.177188127  -8.510796816
  C   -3.567258318   4.853978437  -8.997173266
  H   -3.584800186   7.504973418  -6.888136706
  N   -3.720915609   4.658768842 -10.317359774
  H   -3.883068549   5.438338548 -10.955695193
  H   -3.680150397   3.722328014 -10.716810633
  H   -2.817553546   0.878959934  -6.724181577
  P   -2.797628016  -1.387809161  -1.806957419
  O   -1.209943949  -0.971209017  -1.811546397
  C   -0.199313755  -1.867471303  -1.301398085
  H    0.121601281  -2.509798688  -2.154249772
  H    0.627213985  -1.176968421  -1.029809677
  C   -0.715005193  -2.656766828  -0.097707471
  H   -0.895347920  -2.033670109   0.811707957
  O   -2.051262817  -3.114762215  -0.504223857
  C   -2.070274331  -4.572977955  -0.692122523
  H   -3.073218538  -4.860803404  -0.291745751
  C    0.103064833  -3.926130866   0.239710641
  H    1.018523529  -4.025895797  -0.396799452
  C   -0.879993887  -5.091252952   0.084583403
  H   -0.396099323  -5.994094103  -0.381599392
  H   -1.193994513  -5.493593647   1.085660881
  O    0.455457694  -3.788452170   1.633050295
  O   -3.196621360  -2.513654232  -2.714703961
  O   -3.472639484  -1.252855992  -0.346531212
  N   -2.018824515  -4.875685234  -2.153464592
  C   -0.787167586  -4.909569768  -2.862808852
  N   -0.852501261  -5.286928156  -4.222382242
  C   -2.062715478  -5.517950199  -4.948080881
  C   -3.286645741  -5.384594659  -4.168791498
  C   -3.240035719  -5.052683371  -2.849401265
  O    0.297791703  -4.645505362  -2.363186755
  H    0.040238376  -5.261678422  -4.739333230
  O   -1.923019218  -5.759311879  -6.144703410
  C   -4.579696704  -5.561574418  -4.886897182
  H   -5.266078683  -6.236787680  -4.353972197
  H   -5.091723735  -4.593821282  -5.021754534
  H   -4.436792339  -5.992764647  -5.891875690
  H   -4.156577257  -4.901200249  -2.259583517
  P    1.784399486  -4.610542784   2.151210278
  O    2.065869040  -5.558100692   0.845706074
  C    3.373883388  -6.197295755   0.752566552
  H    4.136719508  -5.403560410   0.626476297
  H    3.564829558  -6.796179473   1.669034570
  C    3.320096151  -7.125727522  -0.471050400
  H    4.241608840  -7.035623490  -1.093251973
  O    3.368390457  -8.490434527   0.036741730
  C    2.104720398  -9.155406931  -0.207624549
  H    2.361576078 -10.235543157  -0.286743242
  C    2.042051197  -7.037414142  -1.351767693
  H    1.250958147  -6.383595278  -0.914766942
  C    1.567451399  -8.498257863  -1.477001386
  H    0.467580717  -8.584856492  -1.598627542
  H    2.011369528  -8.966912971  -2.379608730
  O    2.428053794  -6.539026458  -2.633418906
  O    1.695188728  -5.175341648   3.498518932
  O    2.961718468  -3.478342739   1.950705353
  N    1.288207429  -8.919402830   1.033640433
  C    0.085075523  -8.075283210   1.067308663
  N   -0.239587665  -7.437599684   2.251858150
  C    0.434608091  -7.715065059   3.403468583
  C    1.504338499  -8.688776976   3.425558919
  C    1.927612058  -9.223545534   2.244311629
  O   -0.557186816  -7.925341520   0.037108967
  N    0.022385594  -7.080024816   4.555261394
  H    0.680737201  -6.993270510   5.320549210
  H   -0.598059449  -6.280874211   4.460637651
  H   -0.247134766  -5.857813800  -6.744406828
  H    2.791920574  -9.902804666   2.193645247
  H    1.961162259  -8.974963620   4.370672473
  H    1.841188959  -5.781520066  -2.871835041
  H   -2.887537081  -2.667339332  -4.191187434
  H   -3.517244664  -2.088829812   0.230354457
  H    3.344741354  -3.049278762   2.759158634
  H    0.869172265  -8.182010163 -10.579761221
  H   -3.230478656   5.725753686  -5.232504993

