%mem=64gb
%nproc=28       
%Chk=snap_90.chk
# opt b3lyp/6-31g(d,p)  scf=(xqc, tight)  pop=min    

tetra snap_90 

2     1 
  O    3.035372613  -4.941358025  -6.876876932
  C    3.382777131  -3.558511095  -6.824452868
  H    4.337653342  -3.524305675  -7.394821260
  H    3.576605273  -3.254997646  -5.775829019
  C    2.330230501  -2.650281726  -7.466877590
  H    2.697462927  -1.596760808  -7.533910371
  O    2.161270261  -3.050490426  -8.868617977
  C    0.830835962  -3.482439664  -9.112447065
  H    0.602729984  -3.206698200 -10.170244693
  C    0.918643290  -2.712138318  -6.830331816
  H    0.814010228  -3.559325844  -6.107427697
  C   -0.045532037  -2.881165521  -8.015759714
  H   -0.461942010  -1.903419926  -8.330893110
  H   -0.938343201  -3.484693770  -7.741611083
  O    0.689222269  -1.422187815  -6.224319734
  N    0.858243776  -4.997855886  -9.028997696
  C   -0.240003911  -5.861941744  -8.821715078
  C    0.292618079  -7.176084728  -8.688632002
  N    1.692245925  -7.087336568  -8.789580882
  C    2.024339568  -5.779495408  -8.979401065
  N   -1.563345128  -5.530623467  -8.770991179
  C   -2.416031894  -6.588991321  -8.564495341
  N   -1.967560579  -7.913801215  -8.373063494
  C   -0.569946178  -8.300146949  -8.406656280
  N   -3.773902688  -6.354596428  -8.672806488
  H   -4.071111079  -5.381463131  -8.742465700
  H   -4.421220649  -6.939746529  -8.143319733
  O   -0.305444373  -9.467538943  -8.225154900
  H    3.036692065  -5.357890108  -9.069017972
  H   -2.645651315  -8.655738862  -8.147149549
  P    0.161520064  -1.516919342  -4.645569306
  O   -0.330802808   0.067690338  -4.642082276
  C    0.106251039   0.842957806  -3.490936199
  H    0.826482922   1.591314354  -3.893229922
  H    0.624520551   0.214924642  -2.729340331
  C   -1.132191223   1.528526211  -2.914187755
  H   -1.043731766   1.657829989  -1.804408168
  O   -1.139271850   2.889841374  -3.445004407
  C   -2.477165041   3.320198325  -3.729587852
  H   -2.665827423   4.211355895  -3.075556351
  C   -2.504918464   0.918205009  -3.309125543
  H   -2.467224960   0.273754739  -4.219248225
  C   -3.420119526   2.132885412  -3.500066431
  H   -4.044165626   2.276372584  -2.582518121
  H   -4.164048592   1.986169469  -4.306219115
  O   -3.046328456   0.183583098  -2.185240918
  O    1.221740807  -1.873605840  -3.686526402
  O   -1.062684717  -2.532346347  -5.000352847
  N   -2.464376493   3.791332544  -5.147516042
  C   -1.839489360   3.243587827  -6.265426114
  C   -2.058369187   4.159624520  -7.348047433
  N   -2.802866197   5.258604363  -6.894338069
  C   -3.031513829   5.047305771  -5.601721394
  N   -1.126473025   2.066378739  -6.472813246
  C   -0.613233846   1.857565167  -7.762867885
  N   -0.790406058   2.675183774  -8.790446992
  C   -1.515543987   3.877211663  -8.642000044
  H   -0.023608883   0.923870476  -7.913941725
  N   -1.652071526   4.677957725  -9.711513048
  H   -1.238939436   4.441375662 -10.613076389
  H   -2.164806452   5.558779282  -9.645202852
  H   -3.582469518   5.702041851  -4.928206006
  P   -2.430455409  -1.325636018  -2.030747615
  O   -2.189338026  -1.477838964  -0.436658569
  C   -1.193703959  -2.492307514  -0.110283016
  H   -0.453926958  -2.631881413  -0.929135358
  H   -0.661313725  -2.023419076   0.757855743
  C   -1.865716912  -3.794633435   0.330462119
  H   -2.240981203  -3.728865450   1.380781813
  O   -3.072730097  -4.061510186  -0.462048526
  C   -3.186301691  -5.469703408  -0.762848961
  H   -4.152755256  -5.782478955  -0.291432005
  C   -0.958290157  -5.037562839   0.098403118
  H   -0.245085052  -4.866628969  -0.756519269
  C   -1.949465622  -6.172641511  -0.212025358
  H   -1.524550985  -6.934494448  -0.887434231
  H   -2.173230423  -6.726742873   0.732436382
  O   -0.289641431  -5.428000452   1.288322542
  O   -1.207918515  -1.570427021  -2.872584258
  O   -3.652875039  -2.296096724  -2.452015382
  N   -3.334083627  -5.569407529  -2.255377385
  C   -2.219149091  -5.418409114  -3.136290127
  N   -2.406779448  -5.845384071  -4.469106465
  C   -3.628032562  -6.382473442  -4.990455412
  C   -4.753425730  -6.408165428  -4.043940936
  C   -4.580188627  -6.033458823  -2.753897402
  O   -1.161014522  -4.919774374  -2.784381251
  H   -1.563642344  -5.871588458  -5.085815129
  O   -3.627272432  -6.748307377  -6.151713244
  C   -6.057684312  -6.892131091  -4.572340626
  H   -6.105021075  -7.995628285  -4.567613383
  H   -6.921074816  -6.530707849  -3.993598108
  H   -6.224232524  -6.574246343  -5.614166448
  H   -5.404007117  -6.063395947  -2.024344704
  P    1.180291032  -4.743701594   1.677088677
  O    2.325404792  -5.718018577   1.014215004
  C    2.202494095  -6.349582361  -0.263813695
  H    2.828361579  -7.266080948  -0.127169416
  H    1.174142478  -6.666850873  -0.495827599
  C    2.843383798  -5.437675153  -1.319153765
  H    3.771714265  -4.954448875  -0.915355867
  O    3.324282218  -6.301508119  -2.394783891
  C    2.782126319  -5.919337871  -3.662868530
  H    3.650908192  -5.947537122  -4.366466692
  C    1.908886386  -4.401604166  -1.976544180
  H    0.827608608  -4.508772210  -1.690334244
  C    2.092833393  -4.571127944  -3.487035896
  H    1.110476501  -4.504767525  -4.004379222
  H    2.708745198  -3.737966413  -3.889870027
  O    2.373098494  -3.127170865  -1.504651377
  O    1.373548315  -4.513961699   3.093062988
  O    1.078881997  -3.463619404   0.654187657
  N    1.821376889  -7.023378573  -4.068823894
  C    0.829393640  -6.846565256  -5.120214099
  N    0.104053881  -7.929229429  -5.547910008
  C    0.276989543  -9.160268583  -4.956623568
  C    1.189747070  -9.332606750  -3.857767319
  C    1.957980597  -8.271267620  -3.463673538
  O    0.678820299  -5.719773489  -5.609609811
  N   -0.476887364 -10.192727618  -5.443445262
  H   -0.300971650 -11.143904465  -5.147885146
  H   -0.930580702 -10.088181636  -6.351447598
  H    2.261685778  -5.158261823  -6.281879664
  H    2.716776029  -8.358724503  -2.663830235
  H    1.290089967 -10.301783042  -3.369078896
  H    1.950194509  -2.393349051  -2.057819480
  H   -1.459035853  -3.064109260  -4.240972651
  H   -3.712055080  -3.177552342  -1.921274897
  H    1.899872034  -3.143725365   0.113597215
  H    2.319583950  -7.881656827  -8.707747761
  H   -0.911582797   1.410348406  -5.694104169

