%mem=64gb
%nproc=28       
%Chk=snap_78.chk
# opt b3lyp/6-31g(d,p)  scf=(xqc, tight)  pop=min    

tetra snap_78 

2     1 
  O    3.182655624  -5.563867564  -7.028036212
  C    3.149062065  -4.221903401  -7.539013967
  H    3.767342161  -4.305290657  -8.462741349
  H    3.669988897  -3.565959328  -6.814953967
  C    1.760017044  -3.674046496  -7.875203940
  H    1.829722811  -2.584751468  -8.138724597
  O    1.303872578  -4.285114259  -9.120299268
  C    0.082301783  -4.990752651  -8.943127370
  H   -0.562508306  -4.719992044  -9.819346327
  C    0.645511070  -3.892391854  -6.824531237
  H    1.001710514  -4.432832136  -5.907305527
  C   -0.466778097  -4.661344415  -7.555891672
  H   -1.403696835  -4.062171565  -7.629795298
  H   -0.773543370  -5.562759350  -6.976771645
  O    0.267592362  -2.549673625  -6.455743915
  N    0.413342886  -6.458135912  -9.076235531
  C   -0.338378509  -7.419904561  -9.786142061
  C    0.334708756  -8.663747779  -9.622754190
  N    1.475136927  -8.433959616  -8.826515083
  C    1.512264895  -7.115418358  -8.509751363
  N   -1.480980885  -7.219024234 -10.507596615
  C   -1.981708876  -8.349576634 -11.111496934
  N   -1.380505358  -9.622918691 -10.996737771
  C   -0.164875601  -9.876079818 -10.225291635
  N   -3.125660400  -8.210982852 -11.853314949
  H   -3.555896307  -7.293564653 -11.947091362
  H   -3.552187778  -8.973481251 -12.357444641
  O    0.252468005 -11.004138663 -10.188234687
  H    2.312265349  -6.551823213  -7.888854047
  H   -1.791052273 -10.444182350 -11.465283086
  P   -0.722372252  -2.354938730  -5.133438817
  O   -1.637880317  -1.107924718  -5.710722334
  C   -1.196963836   0.219847245  -5.390899562
  H   -1.736616935   0.832553389  -6.145211387
  H   -0.106723141   0.347142238  -5.542274835
  C   -1.610578740   0.558397793  -3.952484337
  H   -1.064996153  -0.075857587  -3.204899147
  O   -1.088548579   1.899983819  -3.669074312
  C   -2.037559862   2.669973455  -2.910802653
  H   -1.495673081   2.985088335  -1.981298030
  C   -3.141192759   0.645657820  -3.710307958
  H   -3.709657657   0.824472242  -4.657817287
  C   -3.280374114   1.815017582  -2.706324096
  H   -3.322697933   1.413727297  -1.664185024
  H   -4.242139266   2.341685430  -2.832970130
  O   -3.802170633  -0.487446605  -3.178881557
  O    0.101012935  -2.058721565  -3.932112968
  O   -1.610646352  -3.678764547  -5.402910380
  N   -2.293701641   3.897263710  -3.738441508
  C   -1.437037118   4.433269537  -4.693276715
  C   -2.010543623   5.675958890  -5.117601033
  N   -3.209237812   5.896629017  -4.425187298
  C   -3.371793937   4.853304201  -3.612111088
  N   -0.234061975   3.968207817  -5.223283986
  C    0.382624065   4.796914193  -6.178324354
  N   -0.104832113   5.954556839  -6.593411244
  C   -1.317100524   6.472778005  -6.084907614
  H    1.344536193   4.441474183  -6.611410243
  N   -1.733892670   7.667862889  -6.529031660
  H   -1.195510454   8.202693500  -7.212168167
  H   -2.603129099   8.082916577  -6.189175738
  H   -4.191766848   4.701953098  -2.914745812
  P   -3.052050602  -1.809440997  -2.499566418
  O   -2.182415373  -0.914971811  -1.440295800
  C   -0.985345452  -1.572553757  -0.931628508
  H   -0.330673060  -1.881956952  -1.777755509
  H   -0.480836953  -0.767895913  -0.354689034
  C   -1.462441291  -2.719942612  -0.051584808
  H   -1.775606819  -2.379759116   0.963675355
  O   -2.700280866  -3.181752356  -0.699934513
  C   -2.811498975  -4.645404718  -0.594371056
  H   -3.783746557  -4.774101415  -0.053380435
  C   -0.560202679  -3.975862342   0.003285464
  H    0.051041280  -4.099990880  -0.931736387
  C   -1.581408299  -5.117242499   0.175637427
  H   -1.176163431  -6.090479435  -0.162802553
  H   -1.798357382  -5.263432264   1.259458644
  O    0.244014828  -4.002520020   1.174540161
  O   -2.277443245  -2.633469809  -3.471387097
  O   -4.469697019  -2.428750460  -1.986512696
  N   -2.943903666  -5.199497517  -1.965797757
  C   -1.837541390  -5.719331592  -2.705783819
  N   -2.155988337  -6.337763909  -3.928771070
  C   -3.471001100  -6.415138819  -4.526356192
  C   -4.506994034  -5.699322098  -3.764384299
  C   -4.235798461  -5.145209182  -2.560102579
  O   -0.678779286  -5.659704420  -2.319256173
  H   -1.378086132  -6.828503086  -4.421496339
  O   -3.557365980  -7.020579942  -5.567165775
  C   -5.860197707  -5.645176104  -4.381160965
  H   -6.417316888  -4.737866351  -4.110431164
  H   -5.807339960  -5.671737699  -5.483528496
  H   -6.468738313  -6.514508052  -4.078821797
  H   -5.004255292  -4.610245664  -1.977267394
  P    1.636501289  -3.091207394   1.233873649
  O    2.837145618  -4.131400374   0.811059055
  C    2.647714717  -5.186903008  -0.140686781
  H    3.326235191  -5.984603352   0.251759642
  H    1.620511727  -5.587275515  -0.156345658
  C    3.166029850  -4.687959936  -1.494933136
  H    4.051954021  -4.016068593  -1.352546286
  O    3.700091682  -5.861399906  -2.189910194
  C    3.196755474  -5.952510257  -3.528391086
  H    4.080747355  -6.216751746  -4.158890350
  C    2.131751340  -4.059965536  -2.455774075
  H    1.062961429  -4.271596818  -2.183107648
  C    2.519379323  -4.614834083  -3.833166021
  H    1.639619466  -4.685607181  -4.511187539
  H    3.237171459  -3.919739215  -4.321391911
  O    2.356445867  -2.641439715  -2.422817410
  O    1.849684843  -2.408540201   2.494437521
  O    1.388903401  -2.174365040  -0.100629969
  N    2.233454232  -7.120313876  -3.550153356
  C    1.212619113  -7.254388451  -4.579626536
  N    0.278033840  -8.252744150  -4.476862475
  C    0.319031291  -9.136399708  -3.425417545
  C    1.363565582  -9.068383539  -2.437769751
  C    2.280784904  -8.053979262  -2.514757163
  O    1.217142320  -6.454396159  -5.521273012
  N   -0.697198073 -10.046689804  -3.362874905
  H   -0.711205151 -10.782696926  -2.673320634
  H   -1.397637656 -10.086372064  -4.096841301
  H    2.598204282  -5.677057290  -6.213920863
  H    3.091000589  -7.936084349  -1.771710634
  H    1.423357881  -9.812303873  -1.644104064
  H    1.649303670  -2.184090902  -2.997078986
  H   -2.089860509  -4.110446814  -4.630057979
  H   -5.178293013  -1.757194474  -1.730341772
  H    2.077887838  -2.174053440  -0.877515436
  H    2.133865804  -9.157060444  -8.559976537
  H    0.154782551   3.074643234  -4.884926753

