%mem=64gb
%nproc=28       
%Chk=snap_199.chk
# opt b3lyp/6-31g(d,p)  scf=(xqc, tight)  pop=min    

tetra snap_199 

2     1 
  O    2.506970807  -4.383386311  -4.481936733
  C    2.504070576  -3.046278732  -4.994530117
  H    3.581052936  -2.861689278  -5.210076002
  H    2.160634605  -2.357678871  -4.195387462
  C    1.669951732  -2.862303093  -6.263307789
  H    1.583510641  -1.773619804  -6.516104201
  O    2.427332507  -3.394331514  -7.396784043
  C    1.713314301  -4.414171458  -8.073072075
  H    1.849354007  -4.212894898  -9.166821705
  C    0.280538826  -3.544806001  -6.290074557
  H    0.039893221  -4.126587983  -5.366123116
  C    0.275439155  -4.427148868  -7.547222768
  H   -0.430535949  -3.997145945  -8.296313787
  H   -0.120010298  -5.440202112  -7.340065995
  O   -0.692788413  -2.503281526  -6.550223754
  N    2.410897643  -5.718094435  -7.769225419
  C    2.780049955  -6.694697728  -8.712199211
  C    3.345469558  -7.779655985  -7.977788218
  N    3.336595879  -7.425620040  -6.612540439
  C    2.782065041  -6.198400693  -6.498160912
  N    2.633328475  -6.642277470 -10.071841908
  C    3.098912019  -7.744534933 -10.743583454
  N    3.657639681  -8.871867409 -10.090958471
  C    3.807376566  -8.965105021  -8.647606836
  N    2.992802667  -7.751271619 -12.109307701
  H    2.615932303  -6.934570239 -12.587200103
  H    3.334957101  -8.505734000 -12.686219505
  O    4.270725507  -9.996431942  -8.212738724
  H    2.649393194  -5.554868102  -5.543807964
  H    3.984793026  -9.686678798 -10.631190415
  P   -1.601739443  -2.038915421  -5.256297115
  O   -2.611939350  -0.946361417  -5.962683312
  C   -1.992851303   0.262545021  -6.459666071
  H   -2.825444658   0.737814460  -7.020850711
  H   -1.185261592   0.023934827  -7.181251836
  C   -1.508260722   1.158185550  -5.309137701
  H   -0.434130951   0.990716611  -5.037795801
  O   -1.538651134   2.526561896  -5.799403714
  C   -2.407387265   3.349183961  -5.014258540
  H   -1.811422529   4.274990581  -4.796067275
  C   -2.412154592   1.106053596  -4.051412474
  H   -3.292898312   0.435556152  -4.191221904
  C   -2.828890683   2.561221544  -3.779526606
  H   -2.278118725   2.922754348  -2.872774161
  H   -3.891913187   2.663322126  -3.487793706
  O   -1.581907520   0.696265349  -2.954678621
  O   -0.668510586  -1.515234941  -4.187594172
  O   -2.468009899  -3.371546383  -5.039479657
  N   -3.513696823   3.764797888  -5.936633794
  C   -4.717143115   3.157643126  -6.291036140
  C   -5.243825434   3.903853752  -7.399978571
  N   -4.361164002   4.940277318  -7.739265449
  C   -3.343149131   4.848107928  -6.890049876
  N   -5.423823493   2.073348335  -5.778558515
  C   -6.675564382   1.809872119  -6.361686786
  N   -7.190681642   2.461303288  -7.393785398
  C   -6.509037973   3.554115997  -7.966565225
  H   -7.259431475   0.971558221  -5.920721075
  N   -7.082510310   4.197084573  -8.998494456
  H   -7.994115836   3.919739801  -9.359713925
  H   -6.623966297   4.995765324  -9.437282425
  H   -2.464921230   5.490315679  -6.862860576
  P   -1.876942001  -0.833279102  -2.388528003
  O   -0.488508208  -1.293150236  -1.678271064
  C   -0.179045764  -2.701421235  -1.773483628
  H    0.064343714  -2.959437178  -2.824230853
  H    0.751540406  -2.765295985  -1.166639707
  C   -1.315521547  -3.531691080  -1.163578747
  H   -1.021314158  -3.958959743  -0.174451082
  O   -2.401434855  -2.589522837  -0.907399323
  C   -3.679440198  -3.339992568  -0.861216583
  H   -3.906232755  -3.445377245   0.229160744
  C   -1.972414864  -4.614379063  -2.060661477
  H   -1.908832049  -4.413246715  -3.158996562
  C   -3.421746416  -4.675969281  -1.561172660
  H   -4.136396159  -4.899570009  -2.388059185
  H   -3.545054102  -5.537607971  -0.864549642
  O   -1.404576029  -5.914394197  -1.748080000
  O   -2.793834567  -1.603721291  -3.336648079
  O   -2.694824205  -0.296031453  -1.055763896
  N   -4.694303731  -2.433937548  -1.463692449
  C   -4.870968011  -2.390790884  -2.883653698
  N   -5.356217111  -1.172828380  -3.445800586
  C   -5.535836437   0.020032280  -2.695155555
  C   -5.538678489  -0.149572272  -1.241868463
  C   -5.065447018  -1.296014341  -0.687989173
  O   -4.758207289  -3.377486860  -3.598636175
  H   -5.354714790  -1.129522173  -4.473672266
  O   -5.654276990   1.069169710  -3.327355103
  C   -6.000627767   1.011054786  -0.433792551
  H   -6.194679099   0.756918647   0.617792648
  H   -5.247032292   1.817518200  -0.440144436
  H   -6.934686353   1.440462223  -0.833389731
  H   -4.962937727  -1.414923045   0.399473503
  P    0.048745990  -6.180180859  -2.447807214
  O    1.008935144  -5.396132914  -1.356338876
  C    2.421038265  -5.700056836  -1.374910774
  H    2.781278040  -6.055036870  -2.368120182
  H    2.884735675  -4.706777366  -1.178757622
  C    2.717877560  -6.676942718  -0.237112214
  H    2.103572728  -6.438192252   0.665095137
  O    2.269861112  -8.027581877  -0.574630115
  C    3.387460868  -8.941333018  -0.726380424
  H    3.189026215  -9.722481932   0.052029126
  C    4.237769047  -6.780060787   0.070108017
  H    4.836814424  -5.935373616  -0.347795650
  C    4.670608478  -8.146231376  -0.489068248
  H    5.261671633  -8.011657438  -1.421536958
  H    5.364952500  -8.662032890   0.204491823
  O    4.476502483  -6.647449993   1.456741918
  O    0.224128568  -5.556892580  -3.792909750
  O    0.263999196  -7.762039402  -2.318527387
  N    3.277102142  -9.555843976  -2.077712485
  C    3.508107522  -8.799086608  -3.313298820
  N    3.588562825  -9.492574416  -4.504667266
  C    3.459611481 -10.856286772  -4.543648344
  C    3.138561980 -11.602138300  -3.343901815
  C    3.064980729 -10.941680075  -2.154813304
  O    3.615282768  -7.585282655  -3.255006988
  N    3.636557448 -11.462322175  -5.747540932
  H    3.589521218 -12.464737679  -5.856687958
  H    3.916330283 -10.916813734  -6.569946124
  H    1.609598969  -4.620480539  -4.062261681
  H    2.842897117 -11.470068594  -1.214609755
  H    2.962436256 -12.676917103  -3.398262361
  H    4.097389671  -7.385711820   1.984011290
  H   -3.375882060  -3.274117869  -4.536376508
  H   -2.228653244  -0.406606969  -0.180451010
  H    1.147314968  -8.089029546  -1.854630625
  H    3.657071469  -8.052439146  -5.841965778
  H   -5.150792281   1.592617148  -4.879618386

