%mem=64gb
%nproc=28       
%Chk=snap_21.chk
# opt b3lyp/6-31g(d,p)  scf=(xqc, tight)  pop=min    

tetra snap_21 

2     1 
  O    0.180290394  -6.114935248  -7.588074826
  C    1.114761000  -5.101304286  -7.207154692
  H    2.067054462  -5.440828973  -7.675238290
  H    1.236373269  -5.087195867  -6.105782801
  C    0.732135241  -3.718211723  -7.743135775
  H    1.300131648  -2.909546542  -7.216230476
  O    1.237504962  -3.613142782  -9.112235696
  C    0.180094438  -3.591210996 -10.050105268
  H    0.520134545  -2.912965760 -10.875289536
  C   -0.785466504  -3.401680849  -7.809088750
  H   -1.434288588  -4.181404146  -7.346480691
  C   -1.095496615  -3.200065561  -9.306325210
  H   -1.329874971  -2.119350230  -9.473550448
  H   -2.006912547  -3.728327433  -9.631434633
  O   -0.996469620  -2.114761582  -7.210602271
  N    0.090685924  -4.981754937 -10.649886222
  C    0.834471650  -5.421995084 -11.771782717
  C    0.658140180  -6.833262765 -11.855363020
  N   -0.154951633  -7.231831382 -10.780444140
  C   -0.478980028  -6.125055795 -10.061865506
  N    1.557201836  -4.659953315 -12.640759355
  C    2.165251687  -5.365555286 -13.657825535
  N    2.051954248  -6.764845796 -13.805424272
  C    1.277817483  -7.613835487 -12.902205437
  N    2.902130744  -4.652600740 -14.564384118
  H    3.000969046  -3.645426509 -14.452577909
  H    3.416375680  -5.084936430 -15.318754365
  O    1.244681428  -8.794710257 -13.121602404
  H   -1.078314777  -6.101788106  -9.136065286
  H    2.523800004  -7.253203969 -14.581436962
  P   -1.485585158  -2.084618023  -5.619965618
  O   -1.834387886  -0.463406968  -5.644761748
  C   -0.923879580   0.381081199  -4.906433948
  H   -0.553807065   1.120003907  -5.652029918
  H   -0.052975930  -0.174603991  -4.494201342
  C   -1.721097637   1.077589010  -3.796472542
  H   -1.196674212   1.019114867  -2.805028661
  O   -1.708206476   2.513288424  -4.085074989
  C   -3.025002022   3.030579672  -4.189026811
  H   -3.004273144   4.001330900  -3.644074099
  C   -3.214980614   0.657086864  -3.696844415
  H   -3.556862189   0.007507560  -4.541543653
  C   -3.995802876   1.980838226  -3.647790847
  H   -4.281314347   2.194906945  -2.588983934
  H   -4.957544454   1.924826238  -4.190609090
  O   -3.475877953  -0.008348361  -2.454505102
  O   -0.424141579  -2.562524491  -4.712584067
  O   -2.906960714  -2.833727998  -5.860618105
  N   -3.261014848   3.295885272  -5.653628580
  C   -3.434456872   4.528216624  -6.277149933
  C   -3.514205710   4.272451011  -7.686347188
  N   -3.364213488   2.897324331  -7.921969410
  C   -3.205454353   2.328749623  -6.727168381
  N   -3.554132048   5.827366681  -5.779703714
  C   -3.746738988   6.847948463  -6.734363249
  N   -3.829163087   6.651765487  -8.037859357
  C   -3.719953224   5.358751191  -8.594794451
  H   -3.838803782   7.888091496  -6.345600188
  N   -3.818086872   5.235026368  -9.928196689
  H   -3.966917998   6.046647056 -10.529612598
  H   -3.749738941   4.322015146 -10.377417859
  H   -3.038284283   1.264154269  -6.531255854
  P   -2.781935590  -1.516627195  -2.309854160
  O   -1.383701826  -0.911804223  -1.716398598
  C   -0.257070432  -1.818006054  -1.558528312
  H   -0.043895292  -2.352160287  -2.517312779
  H    0.578912467  -1.131813429  -1.318622441
  C   -0.654638355  -2.725302993  -0.400828522
  H   -0.821464819  -2.174500968   0.556817316
  O   -1.994772640  -3.171756834  -0.817154121
  C   -2.042506312  -4.631965186  -0.926435249
  H   -3.022009067  -4.897675364  -0.458075396
  C    0.194177166  -3.991597023  -0.172236826
  H    1.022888234  -4.103799228  -0.915234980
  C   -0.815810471  -5.145281416  -0.202570211
  H   -0.374333174  -6.083529495  -0.637741313
  H   -1.067058953  -5.483329942   0.841181180
  O    0.703936843  -3.840607223   1.172285445
  O   -2.669452676  -2.204733159  -3.636861747
  O   -3.916145956  -2.108590517  -1.319652689
  N   -2.091449929  -4.964069856  -2.384205189
  C   -0.899472650  -5.099912987  -3.155968018
  N   -1.075826814  -5.501202149  -4.502962363
  C   -2.335650273  -5.655773000  -5.160252101
  C   -3.504123736  -5.424371134  -4.313378559
  C   -3.355799919  -5.086081808  -3.004385178
  O    0.227446048  -4.955226957  -2.715946644
  H   -0.212284200  -5.595883137  -5.060861522
  O   -2.278913066  -5.939364489  -6.351311366
  C   -4.842947759  -5.584808808  -4.945822499
  H   -4.767163547  -5.696276307  -6.041997340
  H   -5.358042548  -6.488129726  -4.577335117
  H   -5.506574216  -4.729054906  -4.758049971
  H   -4.227634859  -4.893676254  -2.359510739
  P    2.135279767  -4.573104769   1.501822564
  O    2.141924697  -5.718737221   0.332853267
  C    3.424850842  -6.329634188   0.007761633
  H    4.042245144  -5.563781897  -0.503065556
  H    3.919544879  -6.695261782   0.932484108
  C    3.116954062  -7.514035094  -0.918254117
  H    3.903646554  -7.627020920  -1.701700145
  O    3.235427414  -8.725450423  -0.121230942
  C    1.937828469  -9.352901281   0.023333932
  H    2.161528187 -10.438697343   0.128711938
  C    1.694348788  -7.542858012  -1.546996983
  H    1.015128004  -6.750441880  -1.143985715
  C    1.171311839  -8.956343041  -1.237464183
  H    0.067498482  -8.989533560  -1.119607034
  H    1.404455348  -9.643724730  -2.076786166
  O    1.829003720  -7.383456540  -2.961790743
  O    2.387927653  -4.888640771   2.907727674
  O    3.209917433  -3.504928717   0.840511497
  N    1.377691783  -8.823534568   1.313465195
  C    0.246437696  -7.885085076   1.389613400
  N    0.145534863  -7.064528065   2.499060823
  C    0.975862432  -7.226114584   3.567650078
  C    2.000043342  -8.246842148   3.572999900
  C    2.199861472  -8.977479789   2.438513722
  O   -0.543917103  -7.835994893   0.458874793
  N    0.761710024  -6.423016170   4.667138151
  H    1.519193119  -6.284247023   5.323365134
  H    0.157131936  -5.615270156   4.554689343
  H   -0.568229145  -6.186204013  -6.924190618
  H    3.015782115  -9.711734926   2.364389942
  H    2.603819357  -8.410101970   4.462986732
  H    1.407141727  -6.535231355  -3.227578806
  H   -3.466144080  -3.020073311  -5.017549352
  H   -3.694658431  -2.189533672  -0.334719461
  H    3.821527280  -3.020024701   1.449527157
  H   -0.417270353  -8.196788810 -10.593353750
  H   -3.484295243   6.030022290  -4.779588456

