%mem=64gb
%nproc=28       
%Chk=snap_178.chk
# opt b3lyp/6-31g(d,p)  scf=(xqc, tight)  pop=min    

tetra snap_178 

2     1 
  O    2.885533666  -4.110844932  -4.623582741
  C    3.209449125  -2.853889851  -5.225473402
  H    4.279391397  -2.973940473  -5.506978364
  H    3.109668825  -2.060947871  -4.457171139
  C    2.348694382  -2.542970761  -6.450810451
  H    2.462713474  -1.477753456  -6.770237889
  O    2.871948120  -3.302345374  -7.588297410
  C    1.859104212  -4.089278213  -8.192345267
  H    2.005463333  -3.987219139  -9.298230098
  C    0.854855378  -2.931030879  -6.316738782
  H    0.668091139  -3.585525967  -5.418269116
  C    0.506273092  -3.650089358  -7.626898683
  H   -0.011109104  -2.949043522  -8.320180715
  H   -0.207209081  -4.482263193  -7.474951663
  O    0.120601535  -1.692813438  -6.276721031
  N    2.142699983  -5.529876936  -7.833813280
  C    1.912980818  -6.621244083  -8.689823109
  C    2.257445853  -7.797481007  -7.961686243
  N    2.694421548  -7.395855423  -6.682738898
  C    2.616212039  -6.046982517  -6.610614696
  N    1.446960601  -6.582344184  -9.977136355
  C    1.320570987  -7.807434729 -10.578782324
  N    1.625226326  -9.026959226  -9.923981753
  C    2.124386403  -9.097811466  -8.560873931
  N    0.851868316  -7.841070136 -11.866642221
  H    0.670008150  -6.966599872 -12.356552976
  H    0.794964842  -8.691091035 -12.407698967
  O    2.349163334 -10.205758134  -8.123796743
  H    2.880365404  -5.381063132  -5.716704222
  H    1.501558725  -9.930877474 -10.403753157
  P   -0.815864099  -1.514107259  -4.921620586
  O   -1.136897443   0.094484025  -5.132083972
  C   -0.281329492   1.109541692  -4.567173517
  H    0.066480253   1.700227960  -5.447445148
  H    0.588133901   0.672696005  -4.038895664
  C   -1.123747650   1.979170793  -3.632825040
  H   -0.494518411   2.414612696  -2.817537154
  O   -1.616801388   3.124223530  -4.401236089
  C   -2.955641410   3.462100291  -4.001751744
  H   -2.923113245   4.545913122  -3.723765795
  C   -2.405120690   1.321908057  -3.063160630
  H   -2.841032855   0.578631301  -3.786733147
  C   -3.370231482   2.499426992  -2.884012624
  H   -3.254903995   2.954821630  -1.874991612
  H   -4.440598630   2.192997083  -2.922265165
  O   -2.057932336   0.723839012  -1.814903325
  O   -0.095611719  -2.058232599  -3.753636496
  O   -2.209374404  -2.031031047  -5.548609010
  N   -3.819369557   3.333603898  -5.218582221
  C   -4.047756513   2.245032069  -6.055765049
  C   -5.005887340   2.668356271  -7.036992269
  N   -5.352265053   4.008505450  -6.808488752
  C   -4.652800745   4.396419622  -5.744934412
  N   -3.549706242   0.945620656  -6.079971209
  C   -3.992263410   0.110035300  -7.115224146
  N   -4.898268309   0.449804996  -8.020989945
  C   -5.445630018   1.750102585  -8.040556421
  H   -3.552782078  -0.920261965  -7.141032462
  N   -6.344574890   2.050554816  -8.994852336
  H   -6.628576546   1.367813178  -9.694148675
  H   -6.764195378   2.979201232  -9.042441259
  H   -4.671840028   5.384089989  -5.289366864
  P   -2.347340454  -0.915295378  -1.786136163
  O   -1.204240616  -1.390107167  -0.741822832
  C   -0.643873890  -2.706064434  -0.994018313
  H    0.037444782  -2.656478469  -1.878843319
  H   -0.021788324  -2.857533670  -0.084899472
  C   -1.756143357  -3.749664501  -1.115550509
  H   -1.759569963  -4.451901426  -0.248416429
  O   -3.019284839  -3.008273245  -1.073117596
  C   -4.079747693  -3.863041808  -1.684374846
  H   -4.569369617  -4.352971368  -0.804415602
  C   -1.850683409  -4.528463115  -2.453908808
  H   -1.439535391  -3.966688395  -3.324977186
  C   -3.346917016  -4.843616025  -2.599676894
  H   -3.674093247  -4.809514114  -3.665622296
  H   -3.538808232  -5.901415298  -2.302350967
  O   -1.196379366  -5.803045376  -2.268931955
  O   -2.411878516  -1.390003544  -3.218805872
  O   -3.729375466  -0.813152374  -0.919183765
  N   -5.045331576  -2.925721296  -2.301215147
  C   -4.887027323  -2.471679886  -3.642976734
  N   -5.373432142  -1.184510856  -3.948635358
  C   -5.995619628  -0.294122345  -2.997595334
  C   -6.385555182  -0.956443285  -1.740736188
  C   -5.874749967  -2.167750759  -1.412674720
  O   -4.379810619  -3.158693097  -4.524713248
  H   -5.211211322  -0.837418123  -4.899099717
  O   -6.090467665   0.865353731  -3.335815909
  C   -7.332681285  -0.216615868  -0.865781320
  H   -7.403964218   0.851613361  -1.139098143
  H   -8.354943927  -0.625337889  -0.940392626
  H   -7.041967336  -0.246869737   0.194962221
  H   -6.089128705  -2.652149961  -0.451127672
  P    0.326898640  -5.886550600  -2.866849275
  O    1.123986040  -5.017701203  -1.714164676
  C    2.567361634  -5.133049520  -1.725936835
  H    2.979549117  -5.503437246  -2.696072558
  H    2.901912536  -4.080293539  -1.589315361
  C    2.976729234  -6.000785963  -0.534902317
  H    2.415331796  -5.733548413   0.396128773
  O    2.588250282  -7.391695967  -0.753295048
  C    3.747365133  -8.265223174  -0.802410182
  H    3.605784941  -8.946027910   0.075464607
  C    4.510568837  -5.991669774  -0.312390852
  H    5.042538869  -5.188993683  -0.866196137
  C    5.001345880  -7.394531909  -0.708717790
  H    5.559416094  -7.360948375  -1.669509055
  H    5.715503835  -7.798384342   0.035896106
  O    4.635404039  -5.756763539   1.090692201
  O    0.534810900  -5.311968043  -4.222624251
  O    0.665791713  -7.444485996  -2.672140278
  N    3.619012277  -9.042236762  -2.067138315
  C    3.641057006  -8.396640401  -3.386296467
  N    3.399361066  -9.181237682  -4.499622108
  C    3.238720817 -10.538756984  -4.392097785
  C    3.280427922 -11.190611299  -3.100399915
  C    3.445728438 -10.430649745  -1.981421453
  O    3.843303144  -7.196808526  -3.455342079
  N    3.039427919 -11.234151659  -5.542375814
  H    2.902643795 -12.234025974  -5.550669198
  H    2.987602215 -10.754433597  -6.446775418
  H    1.906967889  -4.138961717  -4.342754370
  H    3.455882000 -10.882019314  -0.977002295
  H    3.175261485 -12.273955364  -3.030879197
  H    5.571836403  -5.636976053   1.361544787
  H   -2.947682967  -2.345557254  -4.898262345
  H   -3.681761612  -1.130852332   0.034360678
  H    1.445731736  -7.687644081  -2.019779551
  H    3.014121948  -8.057871189  -5.926165465
  H   -2.764999111   0.646699243  -5.441477678

