%mem=64gb
%nproc=28       
%Chk=snap_163.chk
# opt b3lyp/6-31g(d,p)  scf=(xqc, tight)  pop=min    

tetra snap_163 

2     1 
  O    3.373988379  -4.273311238  -4.480835574
  C    3.683299580  -3.021513059  -5.107881045
  H    4.673278306  -3.218971404  -5.577690817
  H    3.803785304  -2.258936664  -4.311547740
  C    2.658438985  -2.572653781  -6.151676608
  H    2.854759574  -1.520986594  -6.486950727
  O    2.847422619  -3.345707924  -7.374330607
  C    1.697028378  -4.116303085  -7.690123445
  H    1.505993926  -3.950002182  -8.782350278
  C    1.184407281  -2.757784218  -5.723721236
  H    1.093001911  -3.116605866  -4.668755909
  C    0.567313452  -3.734980277  -6.732691639
  H   -0.286386146  -3.273234783  -7.276720870
  H    0.127306261  -4.614547269  -6.205229910
  O    0.605748960  -1.437818881  -5.869813181
  N    2.089332558  -5.563738524  -7.525918570
  C    1.797437430  -6.589422753  -8.442738399
  C    2.337545733  -7.792671773  -7.899698698
  N    2.948958307  -7.472079788  -6.669771842
  C    2.793341597  -6.145431314  -6.453378763
  N    1.123532721  -6.479055405  -9.630074268
  C    0.991607839  -7.652430163 -10.326246207
  N    1.507454424  -8.889646104  -9.865856890
  C    2.220302087  -9.038320458  -8.608779024
  N    0.298699144  -7.620318301 -11.509036594
  H   -0.040275155  -6.728641649 -11.865679218
  H    0.231910828  -8.415853790 -12.126782101
  O    2.606238966 -10.152987400  -8.330063798
  H    3.169430505  -5.532832096  -5.563115254
  H    1.390605304  -9.749535927 -10.421900431
  P   -0.739047860  -1.177595186  -4.957692248
  O   -1.225008399   0.275543837  -5.584717951
  C   -0.533404899   1.459389325  -5.109946280
  H   -0.485590286   2.100987753  -6.023017028
  H    0.498894106   1.227681130  -4.780147631
  C   -1.339749770   2.147623222  -4.008722274
  H   -0.668721340   2.583240002  -3.226970718
  O   -2.009349628   3.290810746  -4.635950306
  C   -3.327992441   3.465346259  -4.097692536
  H   -3.378394902   4.529294683  -3.755907981
  C   -2.487904491   1.333979257  -3.359683137
  H   -2.928689707   0.592701380  -4.080974622
  C   -3.536759171   2.401765731  -3.016680436
  H   -3.363841409   2.803920000  -1.993729519
  H   -4.573505671   1.997604623  -2.980775503
  O   -1.964399669   0.718640293  -2.186472143
  O   -0.368925836  -1.190719017  -3.504923735
  O   -1.773539866  -2.147761404  -5.703260839
  N   -4.287482249   3.314643505  -5.239462585
  C   -4.451546739   2.273582815  -6.147363140
  C   -5.569039985   2.620293037  -6.980490087
  N   -6.080628740   3.865522060  -6.586218369
  C   -5.327340715   4.269991128  -5.566193467
  N   -3.767226921   1.078243346  -6.357109156
  C   -4.203574482   0.273488071  -7.418423064
  N   -5.249382248   0.537714431  -8.187539810
  C   -5.989452005   1.727250851  -8.013317860
  H   -3.624615522  -0.661409154  -7.602453149
  N   -7.039221230   1.948234259  -8.824310968
  H   -7.300473757   1.284821365  -9.550717258
  H   -7.601600894   2.794308923  -8.730407094
  H   -5.438293805   5.200911922  -5.014264168
  P   -2.212335957  -0.930149761  -2.149318922
  O   -1.064935225  -1.430646444  -1.117720998
  C   -0.488474305  -2.735568815  -1.347546235
  H    0.191311662  -2.699808780  -2.224554995
  H    0.134102715  -2.861694774  -0.432992930
  C   -1.597594642  -3.789235700  -1.435470049
  H   -1.593172916  -4.465073626  -0.546121161
  O   -2.851235555  -3.042754593  -1.398762542
  C   -3.919467550  -3.886114502  -1.995932462
  H   -4.430806997  -4.351816960  -1.114926653
  C   -1.706387370  -4.618738234  -2.740854224
  H   -1.283525674  -4.123509884  -3.642194066
  C   -3.206472340  -4.905299901  -2.887621545
  H   -3.531334231  -4.875700588  -3.955207535
  H   -3.424893344  -5.950559640  -2.568474971
  O   -1.085639842  -5.906479991  -2.497520330
  O   -2.622399076  -1.395468109  -3.543238324
  O   -3.509746790  -0.844489562  -1.133420370
  N   -4.863101671  -2.941814583  -2.638172767
  C   -4.660519734  -2.486734628  -3.976010959
  N   -5.278270011  -1.271853054  -4.342341266
  C   -5.939173103  -0.378482506  -3.425824957
  C   -6.234016457  -0.979301620  -2.119380040
  C   -5.663917239  -2.153362173  -1.753339577
  O   -4.080041499  -3.155181038  -4.831483424
  H   -5.116788966  -0.942105809  -5.295559990
  O   -6.137520099   0.749880087  -3.830742288
  C   -7.129475695  -0.216797190  -1.207618719
  H   -6.574729585   0.186615823  -0.344641635
  H   -7.602046929   0.644481429  -1.710604509
  H   -7.951450416  -0.836524686  -0.815783933
  H   -5.804780703  -2.575037092  -0.749000337
  P    0.480398206  -6.011421582  -2.957201735
  O    1.230673478  -5.301102391  -1.675183641
  C    2.641686985  -5.595666218  -1.523718589
  H    3.131263839  -5.948206647  -2.463252255
  H    3.073824102  -4.603846117  -1.261806978
  C    2.788134388  -6.587516961  -0.371133128
  H    2.068414513  -6.361258407   0.451799879
  O    2.387701908  -7.931274597  -0.788001729
  C    3.533026221  -8.832713437  -0.831743828
  H    3.293362454  -9.597240223  -0.047992471
  C    4.261578736  -6.698107584   0.112460865
  H    4.891828707  -5.814520648  -0.149940229
  C    4.776205651  -8.004887955  -0.513024868
  H    5.377663523  -7.784610828  -1.424203145
  H    5.477029176  -8.529249966   0.167082372
  O    4.322990736  -6.687266552   1.523890432
  O    0.816319447  -5.262950437  -4.202044790
  O    0.742921560  -7.592830817  -2.937377558
  N    3.516882211  -9.477742657  -2.170310465
  C    3.704742820  -8.727749423  -3.420551246
  N    3.584099036  -9.413957333  -4.614599456
  C    3.396964161 -10.772280116  -4.643361471
  C    3.281730637 -11.528538618  -3.413857999
  C    3.326651099 -10.867534530  -2.224236450
  O    3.923901717  -7.530259185  -3.364125715
  N    3.321596320 -11.366076522  -5.862739460
  H    3.165625315 -12.358408469  -5.969567921
  H    3.360270917 -10.811289487  -6.724412067
  H    2.418502259  -4.311435124  -4.164892849
  H    3.220843845 -11.401036111  -1.266494370
  H    3.160185086 -12.612026063  -3.447251107
  H    3.885396925  -7.466742281   1.932845651
  H   -2.650327963  -2.425599855  -5.187841651
  H   -3.345491060  -1.100041650  -0.182593836
  H    1.418782408  -7.970377751  -2.228633977
  H    3.380462403  -8.175760259  -6.016040527
  H   -2.927423754   0.814312184  -5.785627266

