%mem=64gb
%nproc=28       
%Chk=snap_141.chk
# opt b3lyp/6-31g(d,p)  scf=(xqc, tight)  pop=min    

tetra snap_141 

2     1 
  O    2.510148670  -4.105148772  -5.639722622
  C    2.612207074  -3.687337732  -7.004145808
  H    3.045369328  -4.477719724  -7.643328642
  H    3.300292402  -2.815801136  -6.978619842
  C    1.225935795  -3.268977149  -7.515680790
  H    1.277797759  -2.359110907  -8.166363363
  O    0.735057128  -4.292217415  -8.433824366
  C   -0.376953362  -4.987542787  -7.890940713
  H   -1.067742160  -5.180899254  -8.753733423
  C    0.149860215  -3.106374804  -6.416526303
  H    0.571606582  -3.183790237  -5.381415133
  C   -0.934818408  -4.156074751  -6.736250494
  H   -1.874103844  -3.647527596  -7.069232229
  H   -1.246166659  -4.744162674  -5.850955024
  O   -0.344989331  -1.764158896  -6.657590438
  N    0.160602578  -6.332761011  -7.457578265
  C    0.420336501  -7.391422382  -8.360255733
  C    1.301280464  -8.294466601  -7.692566926
  N    1.557888547  -7.784217928  -6.414489893
  C    0.902207499  -6.610180507  -6.284629716
  N   -0.073967519  -7.568436165  -9.618674882
  C    0.354393291  -8.714060177 -10.252021733
  N    1.268578472  -9.631812693  -9.674865437
  C    1.822941139  -9.470753284  -8.340897078
  N   -0.131323816  -8.959010234 -11.506279541
  H   -0.784285406  -8.300389312 -11.930547109
  H    0.138812691  -9.760320580 -12.059234577
  O    2.624547761 -10.286735778  -7.949806409
  H    0.927541916  -5.960739128  -5.395450435
  H    1.580428766 -10.463214106 -10.198597125
  P   -1.278561438  -1.135711691  -5.460901505
  O   -1.338858014   0.466584277  -5.885094711
  C   -0.223454859   1.274443930  -5.445812159
  H   -0.127440110   2.031289768  -6.261752212
  H    0.718146935   0.691992024  -5.400929643
  C   -0.533898642   1.965719721  -4.113008896
  H    0.306388806   1.848962965  -3.382759486
  O   -0.568981588   3.395199951  -4.423695354
  C   -1.720382139   4.025505860  -3.863272940
  H   -1.337325048   4.952099138  -3.363474964
  C   -1.891790240   1.647671999  -3.431867609
  H   -2.631362003   1.172790485  -4.133418584
  C   -2.405285031   3.011985040  -2.946452757
  H   -2.106493412   3.162912642  -1.879544910
  H   -3.508429810   3.080113981  -2.928191948
  O   -1.632506591   0.834372551  -2.284249700
  O   -0.671149672  -1.410167828  -4.119283816
  O   -2.712270118  -1.583168563  -6.068938214
  N   -2.592553175   4.462022287  -5.002445340
  C   -3.264644102   3.720324213  -5.972919044
  C   -3.935864812   4.664544991  -6.820124100
  N   -3.662472665   5.969680306  -6.385808536
  C   -2.868179893   5.848255720  -5.325888441
  N   -3.394500683   2.353267533  -6.207660306
  C   -4.185782492   1.970699330  -7.305587274
  N   -4.827070559   2.810178184  -8.104577031
  C   -4.734002372   4.204037622  -7.914953710
  H   -4.279385707   0.874069881  -7.489387852
  N   -5.390941124   5.013330812  -8.763199300
  H   -5.950322130   4.642732655  -9.529998545
  H   -5.349013061   6.027596836  -8.657429137
  H   -2.454074301   6.664403957  -4.737415847
  P   -2.154231859  -0.730769599  -2.437401833
  O   -0.946910211  -1.520258615  -1.700381369
  C   -0.773003306  -2.931149123  -1.978716395
  H   -1.241233570  -3.246411521  -2.930803205
  H    0.340675453  -3.021070635  -2.077686708
  C   -1.272035010  -3.716311822  -0.757145287
  H   -0.692138160  -3.480541397   0.168753289
  O   -2.627353570  -3.308021217  -0.411219506
  C   -3.592284691  -4.313975596  -0.772010056
  H   -4.311822767  -4.315233879   0.085376328
  C   -1.340592340  -5.240185463  -1.038854136
  H   -0.884094724  -5.518015156  -2.016572189
  C   -2.830869425  -5.622144239  -0.956853428
  H   -3.150959986  -6.200997767  -1.850291950
  H   -3.030315056  -6.314706618  -0.106465063
  O   -0.576775646  -5.821701083   0.039497534
  O   -2.836726783  -0.917370198  -3.782611892
  O   -3.298102516  -0.829870218  -1.282330021
  N   -4.311056483  -3.817083396  -1.991547223
  C   -3.806729321  -4.012307019  -3.306770095
  N   -4.532005527  -3.393772297  -4.347013695
  C   -5.558240917  -2.392899740  -4.160470769
  C   -6.052381514  -2.301095865  -2.781823574
  C   -5.430199226  -2.965033991  -1.778090792
  O   -2.808981265  -4.672305067  -3.569231761
  H   -4.208488301  -3.583408269  -5.307420633
  O   -5.848501690  -1.745839201  -5.143672683
  C   -7.238190221  -1.432162802  -2.551480419
  H   -8.031938351  -1.951482189  -1.992385215
  H   -6.970822181  -0.523981346  -1.988248812
  H   -7.693883193  -1.096518049  -3.499390145
  H   -5.764728288  -2.874387025  -0.734670919
  P   -0.224876078  -7.425290737  -0.129211727
  O    0.805118573  -7.416989785  -1.410098477
  C    2.212697967  -7.613930583  -1.171547836
  H    2.401339676  -8.380508023  -0.392133558
  H    2.549903541  -8.011580491  -2.150109494
  C    2.893267974  -6.279943077  -0.821237645
  H    2.777348341  -6.022521991   0.256616798
  O    4.324407409  -6.511538291  -0.976743372
  C    4.826355684  -5.834372233  -2.134394294
  H    5.863158215  -5.528150939  -1.854564124
  C    2.530167231  -5.103410298  -1.768046002
  H    1.754479831  -5.386886363  -2.519879244
  C    3.866134309  -4.684627409  -2.422251960
  H    3.730483675  -4.460611320  -3.501872526
  H    4.242762871  -3.735052441  -1.992778586
  O    1.913385824  -4.031470627  -1.078457059
  O   -1.378858218  -8.312569733  -0.259410752
  O    0.794509531  -7.614011933   1.137929153
  N    4.922344834  -6.871263098  -3.234320788
  C    3.861116484  -7.122423582  -4.178741743
  N    3.928012681  -8.225455370  -5.009755165
  C    4.986760150  -9.097138839  -4.957420586
  C    6.057643510  -8.862489231  -4.017226514
  C    5.984674625  -7.787964514  -3.175934125
  O    2.886763196  -6.372594718  -4.268215779
  N    4.954202419 -10.152293752  -5.814767726
  H    5.686069479 -10.848493445  -5.838817490
  H    4.172292129 -10.278409529  -6.463070526
  H    2.756948077  -5.055262184  -5.516988875
  H    6.765428324  -7.594761068  -2.421705437
  H    6.909340237  -9.543786578  -3.974289705
  H    2.462271950  -3.683110755  -0.342100785
  H   -3.507042031  -1.616264909  -5.427211868
  H   -3.122233426  -1.532323594  -0.555740402
  H    0.420007330  -7.961576610   1.994632457
  H    2.251166611  -8.214166928  -5.743017047
  H   -2.826469312   1.642968520  -5.690146655

