%mem=64gb
%nproc=28       
%Chk=snap_58.chk
# opt b3lyp/6-31g(d,p)  scf=(xqc, tight)  pop=min    

tetra snap_58 

2     1 
  O    0.933949476  -6.790223464  -6.864465588
  C    1.969289400  -5.842898637  -7.150138803
  H    2.352407109  -6.155235959  -8.144718400
  H    2.768607483  -5.927452036  -6.389556130
  C    1.426025453  -4.406291638  -7.224113215
  H    2.224108127  -3.644046855  -7.062405813
  O    1.011897463  -4.166428165  -8.609759065
  C   -0.398691660  -4.142298950  -8.717855604
  H   -0.620979444  -3.436361746  -9.558034331
  C    0.182496619  -4.129722492  -6.349091613
  H   -0.052711811  -4.990584287  -5.678458478
  C   -0.953251859  -3.790270387  -7.339871107
  H   -1.204886098  -2.705404873  -7.300625044
  H   -1.900611256  -4.299296397  -7.071043783
  O    0.540771785  -2.999807731  -5.517139276
  N   -0.852766292  -5.512903884  -9.169656276
  C   -0.856905111  -5.945142827 -10.517782766
  C   -1.109405383  -7.345083143 -10.501918557
  N   -1.230279572  -7.745624778  -9.156339890
  C   -1.065214453  -6.651313432  -8.369030218
  N   -0.695893206  -5.177688078 -11.635199902
  C   -0.770964355  -5.871059364 -12.822964315
  N   -1.005703518  -7.260587844 -12.896650253
  C   -1.194610857  -8.112018514 -11.721505685
  N   -0.621907099  -5.150795477 -13.979633917
  H   -0.421296788  -4.154647588 -13.926694661
  H   -0.613026335  -5.574633161 -14.895962618
  O   -1.391847739  -9.283870959 -11.902567373
  H   -1.100612260  -6.639252837  -7.255914826
  H   -1.059071873  -7.740503156 -13.807970870
  P   -0.605369925  -2.483986693  -4.441885882
  O   -1.317616021  -1.265062014  -5.328028722
  C   -0.979173503   0.081118619  -4.977308608
  H   -1.186986452   0.631800214  -5.919205688
  H    0.093798484   0.191110848  -4.724434247
  C   -1.887875961   0.570825376  -3.832800454
  H   -1.439118322   0.416030392  -2.821097983
  O   -1.945739821   2.030159427  -3.917875059
  C   -3.225962378   2.476779104  -4.369817862
  H   -3.491076266   3.334184738  -3.697583486
  C   -3.345771462   0.058896666  -3.967773402
  H   -3.439676758  -0.783124606  -4.699100859
  C   -4.184674547   1.290663897  -4.357293172
  H   -4.987345047   1.429375897  -3.586875368
  H   -4.727167019   1.120532991  -5.303974616
  O   -3.904523780  -0.340068917  -2.704086875
  O    0.043953175  -2.048226019  -3.186997486
  O   -1.662187716  -3.690151078  -4.700375727
  N   -2.988106668   3.029670993  -5.751746904
  C   -1.787072177   3.563739316  -6.206606128
  C   -2.020786104   4.048489331  -7.534331518
  N   -3.357974938   3.816410515  -7.884810114
  C   -3.925074835   3.223512546  -6.832805688
  N   -0.536182551   3.673203282  -5.599862252
  C    0.463254214   4.311042639  -6.355923103
  N    0.293937097   4.775502439  -7.584274349
  C   -0.950482214   4.681644543  -8.244938813
  H    1.463765435   4.423712327  -5.879689172
  N   -1.051330288   5.183829334  -9.485560785
  H   -0.260535771   5.641549878  -9.940990992
  H   -1.934534956   5.151232570  -9.997005994
  H   -4.967487643   2.925603542  -6.751271484
  P   -3.249462993  -1.690275556  -2.002098582
  O   -2.447072595  -0.935974259  -0.810719037
  C   -1.266268269  -1.651120522  -0.337200742
  H   -0.575733027  -1.864941737  -1.184577218
  H   -0.789519575  -0.904920443   0.340198134
  C   -1.766667000  -2.884549583   0.400818058
  H   -2.243205528  -2.632805272   1.377829875
  O   -2.860791603  -3.403252577  -0.445927359
  C   -2.844696992  -4.873717103  -0.455047251
  H   -3.874712583  -5.139426648  -0.109545572
  C   -0.779629634  -4.070231363   0.526544758
  H   -0.036992594  -4.093470330  -0.316158871
  C   -1.724841515  -5.289219220   0.494428731
  H   -1.196000113  -6.219595638   0.205957541
  H   -2.100802698  -5.496050863   1.522778100
  O   -0.148305124  -4.097390446   1.797340597
  O   -2.443388737  -2.426082912  -3.029381324
  O   -4.632434343  -2.380479855  -1.512277659
  N   -2.678588142  -5.335496481  -1.862402797
  C   -1.406868332  -5.739381419  -2.392587465
  N   -1.411413690  -6.283680918  -3.694214798
  C   -2.536561463  -6.310055852  -4.572725874
  C   -3.790557256  -5.823565929  -3.968685166
  C   -3.829258980  -5.371015134  -2.690198238
  O   -0.369069279  -5.649741632  -1.759465152
  H   -0.484550314  -6.623237302  -4.045647669
  O   -2.355845012  -6.696012072  -5.714467616
  C   -4.993635109  -5.861714768  -4.843681665
  H   -5.897818785  -5.466793143  -4.360610387
  H   -4.834113954  -5.283757642  -5.768171515
  H   -5.223401927  -6.896456248  -5.155008426
  H   -4.758461429  -4.992784538  -2.235992914
  P    1.202322300  -3.149744702   2.049273506
  O    2.489017943  -4.115480879   1.729973620
  C    2.519445560  -5.058964927   0.650225255
  H    3.202832942  -5.847149148   1.049730318
  H    1.540475049  -5.524990537   0.449250721
  C    3.169432207  -4.370875681  -0.556325277
  H    3.888571573  -3.578576234  -0.222613336
  O    4.014118502  -5.363094435  -1.212706573
  C    3.649777752  -5.523924751  -2.591780339
  H    4.617344932  -5.633421514  -3.138050168
  C    2.204051878  -3.839228218  -1.640468205
  H    1.140391681  -4.164728594  -1.505863951
  C    2.806122364  -4.310330747  -2.969271174
  H    2.034471970  -4.511205393  -3.744836242
  H    3.442160571  -3.511250807  -3.406683905
  O    2.265057034  -2.405843899  -1.532099354
  O    1.248440210  -2.532482329   3.359902297
  O    1.044832638  -2.186351590   0.732700707
  N    2.928729440  -6.856255200  -2.656099506
  C    1.848959377  -7.144991322  -3.569490582
  N    1.280849594  -8.399246683  -3.599503934
  C    1.733034616  -9.374004100  -2.747724387
  C    2.781855369  -9.101144602  -1.795289764
  C    3.348213414  -7.856896355  -1.773648797
  O    1.441801242  -6.258312839  -4.335655785
  N    1.140257990 -10.601932681  -2.833147331
  H    1.455891641 -11.383317104  -2.279027583
  H    0.426390748 -10.784188721  -3.527678097
  H    0.878152817  -6.945406041  -5.871572421
  H    4.154427924  -7.588949678  -1.066280223
  H    3.119106179  -9.875914831  -1.106614224
  H    1.593051362  -2.003280684  -2.173690443
  H   -2.433991291  -3.760070622  -3.999744254
  H   -4.764640934  -2.483504747  -0.515163339
  H    1.805922635  -2.083993174   0.040470622
  H   -1.392557232  -8.704157878  -8.861347960
  H   -0.404494637   3.307750616  -4.641650216

