%mem=64gb
%nproc=28       
%Chk=snap_22.chk
# opt b3lyp/6-31g(d,p)  scf=(xqc, tight)  pop=min    

tetra snap_22 

2     1 
  O    0.498768187  -5.959558570  -7.591640134
  C    1.333147953  -4.833186541  -7.310178685
  H    2.292925469  -5.104221652  -7.809430450
  H    1.506294311  -4.739856295  -6.221347197
  C    0.793644084  -3.529071854  -7.903939398
  H    1.320864345  -2.642561349  -7.468988784
  O    1.202695605  -3.485599104  -9.308975789
  C    0.087224846  -3.591774964 -10.169078281
  H    0.341047623  -2.972934976 -11.069011229
  C   -0.745415178  -3.328145681  -7.887731048
  H   -1.306973655  -4.143459585  -7.377781363
  C   -1.150853966  -3.190902950  -9.369786896
  H   -1.411265044  -2.120952232  -9.565977958
  H   -2.070973646  -3.744736908  -9.620104934
  O   -1.011983957  -2.049473239  -7.293466176
  N    0.020295006  -5.030622514 -10.647458013
  C    0.709413323  -5.522348964 -11.782587233
  C    0.571312572  -6.940021567 -11.769414530
  N   -0.161063201  -7.290519281 -10.622037748
  C   -0.475441134  -6.148855941  -9.953585040
  N    1.360806491  -4.796330745 -12.734473566
  C    1.941069230  -5.547271498 -13.735388830
  N    1.850365754  -6.954451510 -13.799724492
  C    1.144372562  -7.765733241 -12.808636721
  N    2.631297428  -4.868309253 -14.702544769
  H    2.710406641  -3.854231762 -14.644403425
  H    3.093628534  -5.323528032 -15.476454671
  O    1.120844910  -8.956806475 -12.965860743
  H   -1.023925503  -6.090203921  -9.000788885
  H    2.296505677  -7.478041999 -14.568940228
  P   -1.500693104  -2.048607801  -5.700263770
  O   -1.890090692  -0.436423681  -5.694999360
  C   -0.987676258   0.422847548  -4.963054128
  H   -0.662080730   1.187382664  -5.703801532
  H   -0.091144879  -0.113688378  -4.582168697
  C   -1.775461619   1.073799376  -3.818525908
  H   -1.243615722   0.978720525  -2.833823281
  O   -1.766711653   2.520012516  -4.048783256
  C   -3.085970510   3.033058496  -4.142543386
  H   -3.077353281   3.991741926  -3.576030460
  C   -3.267648757   0.646158478  -3.724238089
  H   -3.610871406   0.021050120  -4.586350550
  C   -4.050617527   1.965739365  -3.626029938
  H   -4.325360968   2.145265442  -2.557426516
  H   -5.020037190   1.926683629  -4.155794257
  O   -3.524520905  -0.057933987  -2.503534510
  O   -0.428344783  -2.518434470  -4.800924780
  O   -2.901544815  -2.831177563  -5.958802833
  N   -3.321192851   3.329147760  -5.600510710
  C   -3.412095161   4.578119309  -6.207735729
  C   -3.581261478   4.344244929  -7.612672156
  N   -3.553299612   2.964311530  -7.864917932
  C   -3.385473637   2.372363585  -6.682857544
  N   -3.379334569   5.877569560  -5.698079014
  C   -3.519243650   6.921331864  -6.636970466
  N   -3.694703671   6.745915056  -7.934202309
  C   -3.740329020   5.453699381  -8.502101702
  H   -3.479511385   7.962148711  -6.240638439
  N   -3.930101063   5.352683351  -9.827278442
  H   -4.044532726   6.180426962 -10.413739851
  H   -3.965415950   4.442480061 -10.285907863
  H   -3.283570803   1.297526237  -6.505444521
  P   -2.811329378  -1.558651472  -2.389332569
  O   -1.418719302  -0.944718863  -1.789123132
  C   -0.287785004  -1.845241149  -1.626692598
  H   -0.064628171  -2.375149620  -2.585855746
  H    0.544641369  -1.157397514  -1.380507512
  C   -0.692672148  -2.755369312  -0.473278944
  H   -0.887200955  -2.201681479   0.477914131
  O   -2.018045801  -3.221352801  -0.913965878
  C   -2.035158591  -4.678597223  -1.049272170
  H   -3.024011096  -4.970177186  -0.617921093
  C    0.165690929  -4.009750096  -0.219261846
  H    1.022253299  -4.105007466  -0.932307590
  C   -0.823977856  -5.179537044  -0.290989020
  H   -0.352974005  -6.106554771  -0.716665666
  H   -1.102807517  -5.529947908   0.741659880
  O    0.623806698  -3.855293960   1.143725413
  O   -2.687739875  -2.228213458  -3.724682412
  O   -3.944032982  -2.176538033  -1.412493922
  N   -2.030819841  -4.988339963  -2.513799872
  C   -0.812652340  -5.109214084  -3.245129385
  N   -0.936455474  -5.522459215  -4.594194892
  C   -2.170775326  -5.692526403  -5.293932944
  C   -3.370405438  -5.484582589  -4.485496189
  C   -3.272111672  -5.132435599  -3.175115884
  O    0.296334551  -4.938274679  -2.769177397
  H   -0.056254355  -5.620879292  -5.122498079
  O   -2.065538923  -5.957451298  -6.486899360
  C   -4.681164808  -5.689610449  -5.162245264
  H   -4.594671501  -5.591778556  -6.258684560
  H   -5.072259549  -6.704044061  -4.968680807
  H   -5.450820151  -4.976250920  -4.837007734
  H   -4.166839598  -4.943399438  -2.560490269
  P    2.063923436  -4.549439198   1.515608466
  O    2.142599594  -5.677922874   0.333979948
  C    3.450919021  -6.253423893   0.048508284
  H    4.071316787  -5.466577836  -0.425854024
  H    3.917339468  -6.625600528   0.985671888
  C    3.197282615  -7.429088422  -0.904090576
  H    4.008744910  -7.515102965  -1.664445618
  O    3.317741660  -8.647267149  -0.117150110
  C    2.032486563  -9.307753746  -0.021931848
  H    2.279090045 -10.389197221   0.081724777
  C    1.795703567  -7.482254459  -1.576337041
  H    1.086113951  -6.713032507  -1.182286791
  C    1.300240599  -8.913256997  -1.303509971
  H    0.194616413  -8.975521757  -1.224726661
  H    1.583344408  -9.582277668  -2.142356563
  O    1.969046683  -7.298246915  -2.983277473
  O    2.273659034  -4.875255475   2.926433960
  O    3.132458203  -3.446721495   0.903933606
  N    1.415249959  -8.807293137   1.253836731
  C    0.248924843  -7.911208735   1.301761165
  N    0.091015420  -7.096815767   2.409314383
  C    0.892724101  -7.238475130   3.501985854
  C    1.937584189  -8.237412441   3.539597800
  C    2.200712539  -8.949787844   2.406183646
  O   -0.516937448  -7.885992918   0.349839213
  N    0.634993807  -6.432216422   4.590892081
  H    1.379631742  -6.268201017   5.256714261
  H    0.024595664  -5.632479563   4.452948594
  H   -0.260115995  -6.025991142  -6.947281708
  H    3.041552261  -9.657448548   2.353009449
  H    2.505071333  -8.399240655   4.453526832
  H    1.531081849  -6.458421819  -3.250549713
  H   -3.460759501  -3.042704905  -5.122310917
  H   -3.730384902  -2.263267868  -0.426450971
  H    3.707940768  -2.950547867   1.539092328
  H   -0.380671835  -8.248105920 -10.358005211
  H   -3.224119827   6.061537805  -4.703527614

