%mem=64gb
%nproc=28       
%Chk=snap_52.chk
# opt b3lyp/6-31g(d,p)  scf=(xqc, tight)  pop=min    

tetra snap_52 

2     1 
  O    1.859921284  -5.411483075  -6.098272207
  C    2.833141942  -4.609484752  -6.798080560
  H    3.496669439  -5.277506871  -7.383252290
  H    3.425352877  -4.042683600  -6.053097966
  C    2.027188699  -3.682109526  -7.710846496
  H    2.594852952  -2.753422837  -7.965759830
  O    1.848103823  -4.342025009  -9.005643845
  C    0.475506910  -4.538365583  -9.304911336
  H    0.365782690  -4.317803215 -10.397118480
  C    0.606593314  -3.362463760  -7.180498933
  H    0.368854021  -3.933054490  -6.244198855
  C   -0.352654317  -3.696231868  -8.332491674
  H   -0.713769152  -2.762803032  -8.815535384
  H   -1.263577368  -4.218047739  -7.968953723
  O    0.603549892  -1.932284838  -6.971174234
  N    0.187347522  -6.010235399  -9.114294109
  C   -0.495434723  -6.841608348 -10.027823560
  C   -0.583751822  -8.127338052  -9.425873205
  N    0.036255436  -8.051505236  -8.159616745
  C    0.482598735  -6.780478812  -7.981568919
  N   -0.986869900  -6.498690668 -11.257136956
  C   -1.602797538  -7.525078671 -11.933135610
  N   -1.727500273  -8.832665435 -11.412423959
  C   -1.228462192  -9.228950765 -10.097055016
  N   -2.151887628  -7.233056973 -13.156297892
  H   -2.023817062  -6.302864439 -13.550367637
  H   -2.534342380  -7.939122341 -13.768249382
  O   -1.406641928 -10.366651453  -9.745890940
  H    1.029738593  -6.350266074  -7.059770056
  H   -2.198935259  -9.572906372 -11.953181284
  P   -0.084208080  -1.391556180  -5.587021250
  O   -1.373465934  -0.509335728  -6.176896067
  C   -1.255829038   0.916023233  -6.059854658
  H   -2.104840385   1.273435086  -6.679264766
  H   -0.309800423   1.282340100  -6.504649976
  C   -1.396456679   1.346222410  -4.587901140
  H   -0.447744159   1.229185928  -3.989513316
  O   -1.622460461   2.790782878  -4.572916176
  C   -2.967029328   3.102543085  -4.205339808
  H   -2.884195909   3.924075006  -3.446431417
  C   -2.614022968   0.697924593  -3.888721744
  H   -3.007312264  -0.193032022  -4.441501435
  C   -3.655439453   1.823783499  -3.732849478
  H   -3.945299460   1.904993445  -2.654574972
  H   -4.590744602   1.581164274  -4.266710627
  O   -2.173194742   0.380360697  -2.555963800
  O    0.764216641  -0.592585958  -4.695617242
  O   -0.815587997  -2.713988107  -5.034992376
  N   -3.586674996   3.682060039  -5.452484827
  C   -2.887373561   4.298618935  -6.484413775
  C   -3.860798578   4.796543992  -7.410840123
  N   -5.146118665   4.490882641  -6.942906461
  C   -4.981055240   3.841906148  -5.788739625
  N   -1.519982893   4.467992210  -6.700723458
  C   -1.161536382   5.174161180  -7.861275509
  N   -2.024285477   5.655560339  -8.743404202
  C   -3.417519539   5.507288278  -8.572262203
  H   -0.074939537   5.334223866  -8.045581989
  N   -4.229201654   6.039410272  -9.499654731
  H   -3.858437405   6.546364113 -10.304323563
  H   -5.243606963   5.971594052  -9.412943492
  H   -5.773095031   3.474107832  -5.141799131
  P   -2.318871859  -1.184344205  -2.063306522
  O   -0.905213913  -1.215499091  -1.265994795
  C   -0.421384294  -2.477700951  -0.754424810
  H   -0.020703372  -3.077282627  -1.595506434
  H    0.421259165  -2.155047698  -0.094048783
  C   -1.531859570  -3.173916838   0.025204898
  H   -1.883727992  -2.594770970   0.913051650
  O   -2.675519712  -3.171995068  -0.900990070
  C   -3.052916628  -4.539207191  -1.258733747
  H   -4.169346384  -4.485307826  -1.296319951
  C   -1.259600307  -4.653622674   0.383208942
  H   -0.307827674  -5.042450905  -0.071852886
  C   -2.488666541  -5.415773513  -0.144186637
  H   -2.233646540  -6.444176289  -0.462927499
  H   -3.222792453  -5.546248408   0.686560610
  O   -1.258774452  -4.807640997   1.803827616
  O   -2.561864698  -2.104958570  -3.227592173
  O   -3.580531311  -0.969574980  -1.063191861
  N   -2.541249796  -4.863304798  -2.620484411
  C   -1.238482979  -5.408970471  -2.861183718
  N   -0.949441505  -5.767363858  -4.192304492
  C   -1.801124411  -5.517655322  -5.316219737
  C   -3.009119608  -4.748300439  -5.006783965
  C   -3.330430711  -4.436638615  -3.725485829
  O   -0.418816848  -5.613545905  -1.978106615
  H   -0.001227437  -6.169553340  -4.368774536
  O   -1.442855199  -5.981379992  -6.386133403
  C   -3.809845377  -4.270649430  -6.167993817
  H   -3.769779857  -4.980932496  -7.009526242
  H   -4.871473617  -4.127310425  -5.925218656
  H   -3.419291315  -3.303765023  -6.529181295
  H   -4.217641753  -3.835940463  -3.477958781
  P    0.210191024  -4.714259496   2.569682164
  O    0.940402961  -6.166071802   2.324097935
  C    1.359662711  -6.620802822   1.030464743
  H    1.279678523  -7.728820903   1.132256158
  H    0.687487557  -6.284908487   0.212236560
  C    2.825779004  -6.213394877   0.828942575
  H    3.330635580  -6.070030120   1.815701453
  O    3.522439496  -7.355143887   0.249821564
  C    3.983912688  -7.054526877  -1.075175879
  H    4.945144692  -7.611988944  -1.185095606
  C    3.049911405  -5.022894959  -0.145157794
  H    2.113476385  -4.668968247  -0.642278065
  C    4.081482594  -5.533281399  -1.159607367
  H    3.907232668  -5.120000127  -2.181805006
  H    5.109189393  -5.194835167  -0.915410178
  O    3.457967081  -3.862608201   0.570846803
  O    0.156384490  -4.324558895   3.964066172
  O    0.930202024  -3.734648561   1.450253493
  N    2.956848363  -7.688366460  -1.996168291
  C    2.501081180  -7.093235857  -3.238044581
  N    1.444969614  -7.687812846  -3.918549369
  C    0.893838212  -8.850623367  -3.467609372
  C    1.404707497  -9.511340677  -2.297529251
  C    2.403459528  -8.902446442  -1.583929059
  O    3.044500708  -6.087798338  -3.683777321
  N   -0.157298632  -9.350192607  -4.204725527
  H   -0.678493936 -10.154169088  -3.888270895
  H   -0.593393085  -8.767032650  -4.902344007
  H    2.256810086  -5.881569068  -5.294103433
  H    2.802743556  -9.340143197  -0.649516518
  H    1.012224378 -10.478628427  -1.985942350
  H    4.355711634  -3.950734243   0.967628562
  H   -1.476945033  -2.626021816  -4.193623730
  H   -3.883833899  -1.746631082  -0.496092370
  H    1.913715540  -3.510188268   1.523541962
  H    0.106754372  -8.826674594  -7.514940748
  H   -0.848977833   4.100509270  -6.003297064

