%mem=64gb
%nproc=28       
%Chk=snap_179.chk
# opt b3lyp/6-31g(d,p)  scf=(xqc, tight)  pop=min    

tetra snap_179 

2     1 
  O    3.226207084  -4.239648892  -4.558203153
  C    3.542019348  -3.069372628  -5.324830412
  H    4.467863490  -3.369764262  -5.866316258
  H    3.783779092  -2.255678702  -4.612003758
  C    2.449681970  -2.644174626  -6.309591091
  H    2.607957296  -1.595735875  -6.671391692
  O    2.577718248  -3.432463688  -7.529676768
  C    1.447021339  -4.268372052  -7.734313850
  H    1.180978278  -4.156813457  -8.817596153
  C    1.007139494  -2.846682986  -5.791428577
  H    0.988880386  -3.162405678  -4.716541034
  C    0.366579727  -3.887559712  -6.720379667
  H   -0.538852444  -3.479255259  -7.221902847
  H   -0.009765224  -4.756802993  -6.129678825
  O    0.383501070  -1.550296173  -5.955206194
  N    1.915984525  -5.688538659  -7.538341662
  C    1.775392791  -6.732148260  -8.472464677
  C    2.342519548  -7.897209322  -7.875761021
  N    2.841566605  -7.532297400  -6.609352700
  C    2.584478581  -6.219259369  -6.416173591
  N    1.214368788  -6.670978667  -9.719879196
  C    1.238147075  -7.850074048 -10.420808189
  N    1.755989142  -9.058855894  -9.890887289
  C    2.342374472  -9.159047856  -8.565269315
  N    0.717892907  -7.847090567 -11.688761834
  H    0.379144744  -6.972969733 -12.087750650
  H    0.742356812  -8.652133907 -12.297688593
  O    2.736990000 -10.251487603  -8.219072770
  H    2.870022731  -5.584456555  -5.511735517
  H    1.735029492  -9.929735225 -10.442364585
  P   -0.901439012  -1.273214396  -4.960544423
  O   -1.472728743   0.130924695  -5.630948712
  C   -0.679643879   1.316061147  -5.359156126
  H   -0.786655233   1.910850415  -6.297342699
  H    0.393282235   1.071234112  -5.224982290
  C   -1.246479664   2.084086631  -4.161460162
  H   -0.438906618   2.390219129  -3.450380176
  O   -1.788953598   3.332408720  -4.698804072
  C   -3.050321699   3.648703993  -4.095292179
  H   -2.955543687   4.704806056  -3.737114520
  C   -2.424029774   1.425175391  -3.397559093
  H   -2.985815592   0.694919221  -4.041588579
  C   -3.337424931   2.600788458  -3.021587188
  H   -3.092899141   2.970525598  -1.999950122
  H   -4.409484613   2.304417004  -2.955343295
  O   -1.878636023   0.826169259  -2.226128013
  O   -0.425420876  -1.184168478  -3.539467387
  O   -1.917898549  -2.366402301  -5.538612100
  N   -4.065726700   3.636425574  -5.197569604
  C   -4.404733884   2.633937108  -6.101172035
  C   -5.415339056   3.181603597  -6.963344176
  N   -5.692768249   4.503796725  -6.585985351
  C   -4.897112467   4.768507855  -5.552876708
  N   -3.958658562   1.325796696  -6.286281114
  C   -4.519252717   0.614948746  -7.357858504
  N   -5.462889226   1.075680246  -8.164833326
  C   -5.962567550   2.387523473  -8.017236590
  H   -4.133819877  -0.415594949  -7.529307946
  N   -6.905147395   2.812581616  -8.876765338
  H   -7.266067312   2.209443695  -9.613448705
  H   -7.291153295   3.754821673  -8.806627569
  H   -4.844683686   5.707155830  -5.005189747
  P   -2.182711147  -0.806184279  -2.105805681
  O   -0.998464259  -1.283210778  -1.104903130
  C   -0.458720549  -2.607582933  -1.301294266
  H    0.181567000  -2.621929600  -2.207871425
  H    0.200234388  -2.707662274  -0.409941817
  C   -1.590145393  -3.640252909  -1.297847330
  H   -1.554957494  -4.280208918  -0.383086099
  O   -2.828423537  -2.870196150  -1.234207495
  C   -3.937775939  -3.720997868  -1.740498558
  H   -4.411714635  -4.139505486  -0.816254531
  C   -1.772337452  -4.517024068  -2.563220160
  H   -1.392642031  -4.062685869  -3.504425588
  C   -3.282006889  -4.790581407  -2.617963339
  H   -3.663781791  -4.808025777  -3.666408526
  H   -3.496532943  -5.816832299  -2.240296760
  O   -1.142882857  -5.797921702  -2.305536861
  O   -2.688040800  -1.320239392  -3.451857723
  O   -3.417245332  -0.640306461  -1.025533018
  N   -4.897931780  -2.788413260  -2.377189169
  C   -4.762941395  -2.407126018  -3.746187964
  N   -5.322690126  -1.170377612  -4.134341083
  C   -5.841247811  -0.191772508  -3.214118368
  C   -6.130909802  -0.732072860  -1.878389923
  C   -5.624561702  -1.928550104  -1.492872242
  O   -4.285828445  -3.152321287  -4.601767202
  H   -5.192886652  -0.890266971  -5.108540983
  O   -5.943277503   0.941632804  -3.640622658
  C   -6.962646729   0.117892968  -0.985267873
  H   -8.013537746   0.145082952  -1.320880436
  H   -6.966773869  -0.225247271   0.058947826
  H   -6.606347978   1.162142415  -0.975886883
  H   -5.761808851  -2.319470917  -0.476479960
  P    0.412175481  -5.904191077  -2.800386303
  O    1.200674113  -5.127815311  -1.578104003
  C    2.637829070  -5.312510489  -1.547602152
  H    3.066217783  -5.655419969  -2.520048096
  H    3.012878953  -4.285144062  -1.340579402
  C    2.970205960  -6.259447815  -0.393739172
  H    2.383636521  -6.022801771   0.530635956
  O    2.540288648  -7.619013794  -0.712207433
  C    3.666286355  -8.536552459  -0.741313769
  H    3.457586283  -9.238591402   0.106155080
  C    4.494413340  -6.318938103  -0.114371586
  H    5.076538976  -5.511392159  -0.607526066
  C    4.946275808  -7.717832829  -0.567260001
  H    5.530958474  -7.655144455  -1.509794142
  H    5.624681931  -8.183870254   0.174495495
  O    4.575785944  -6.170717546   1.302758239
  O    0.708030236  -5.211815854  -4.088555699
  O    0.700305437  -7.477618602  -2.702704675
  N    3.575344709  -9.267701151  -2.036921703
  C    3.678714737  -8.579536270  -3.329382330
  N    3.556955934  -9.334264925  -4.481547777
  C    3.413119101 -10.697267996  -4.430130474
  C    3.347389114 -11.385994950  -3.158922623
  C    3.418023372 -10.660273285  -2.007247106
  O    3.839904281  -7.370912595  -3.343221942
  N    3.330116231 -11.357485716  -5.615269171
  H    3.218859673 -12.359696343  -5.665251714
  H    3.353938616 -10.851820724  -6.506883907
  H    2.283123585  -4.219729304  -4.201816196
  H    3.358036470 -11.142585894  -1.018751355
  H    3.239027601 -12.470754107  -3.129185012
  H    5.492977242  -5.979824328   1.599232292
  H   -2.806027799  -2.544826189  -5.008244735
  H   -3.208600386  -0.878569271  -0.077829429
  H    1.468252019  -7.784574842  -2.053130315
  H    3.288317000  -8.200656591  -5.926352732
  H   -3.198564757   0.912457784  -5.698182099

