%mem=64gb
%nproc=28       
%Chk=snap_29.chk
# opt b3lyp/6-31g(d,p)  scf=(xqc, tight)  pop=min    

tetra snap_29 

2     1 
  O    2.043096777  -4.841617725  -7.356437099
  C    2.610131270  -3.838129943  -8.234536105
  H    3.130921564  -4.373190724  -9.057243141
  H    3.333000175  -3.223057508  -7.666703400
  C    1.471357721  -2.983296291  -8.796244864
  H    1.791448152  -1.921107154  -8.949330223
  O    1.193781206  -3.440413785 -10.155026444
  C   -0.106554637  -4.003124920 -10.257669340
  H   -0.493106200  -3.687790553 -11.261443021
  C    0.135637364  -3.064645585  -8.018019317
  H    0.205414396  -3.717570162  -7.116952749
  C   -0.906667184  -3.561770731  -9.033927895
  H   -1.608339198  -2.737479050  -9.295153625
  H   -1.556225336  -4.356581332  -8.600513899
  O   -0.168617245  -1.693576648  -7.670179205
  N    0.079939556  -5.501918143 -10.310130777
  C    0.087430630  -6.286634564 -11.488261267
  C    0.442507396  -7.608769733 -11.096518334
  N    0.649581471  -7.606690230  -9.704218262
  C    0.442505638  -6.343986283  -9.246721174
  N   -0.204036553  -5.884816205 -12.758856043
  C   -0.115973562  -6.879061994 -13.710435290
  N    0.252884169  -8.209037182 -13.410745151
  C    0.556095649  -8.679240163 -12.060526027
  N   -0.412149116  -6.541814059 -15.003625425
  H   -0.665222001  -5.581736391 -15.229396969
  H   -0.332842499  -7.189512698 -15.775047830
  O    0.852682250  -9.835288050 -11.916120312
  H    0.521167939  -6.002326853  -8.189846704
  H    0.314514146  -8.920524065 -14.155886091
  P   -0.719930775  -1.428890256  -6.146309690
  O   -1.985519465  -0.400319709  -6.455256783
  C   -1.801412740   0.965325698  -6.048351060
  H   -2.639640549   1.474871629  -6.570270993
  H   -0.843865775   1.378198828  -6.420736133
  C   -1.918510047   1.091587744  -4.518230405
  H   -0.957618127   0.881685068  -3.976809215
  O   -2.162683638   2.502303268  -4.215755849
  C   -3.520839467   2.717952288  -3.815243244
  H   -3.460517760   3.294994616  -2.856218822
  C   -3.122148389   0.308783545  -3.939855536
  H   -3.446412278  -0.542247972  -4.590128873
  C   -4.228195712   1.366635114  -3.738163449
  H   -4.707766979   1.214216321  -2.743028207
  H   -5.034408831   1.236257646  -4.483505820
  O   -2.775117439  -0.116009263  -2.621151066
  O    0.226521413  -0.896666464  -5.156470559
  O   -1.455524997  -2.830883062  -5.843292383
  N   -4.101257159   3.625058164  -4.867020115
  C   -3.369795054   4.456848267  -5.706161705
  C   -4.314868389   5.231992202  -6.454039138
  N   -5.615233958   4.877656741  -6.068328406
  C   -5.486463707   3.937218480  -5.130945375
  N   -1.994935895   4.607760246  -5.884416358
  C   -1.597655561   5.579727949  -6.817558061
  N   -2.431932327   6.320684497  -7.530938960
  C   -3.831959832   6.200272597  -7.391813732
  H   -0.503761332   5.724718536  -6.964206675
  N   -4.613138277   6.994242002  -8.140765757
  H   -4.215405172   7.677690486  -8.786019911
  H   -5.630391032   6.948732768  -8.071925780
  H   -6.296214346   3.448007899  -4.594987677
  P   -2.447733024  -1.727473795  -2.346378180
  O   -0.967860053  -1.410304107  -1.743520855
  C   -0.084475085  -2.506904051  -1.399047195
  H    0.351039991  -2.923243550  -2.332720932
  H    0.712911212  -1.995781658  -0.813733464
  C   -0.862425945  -3.520953139  -0.565683790
  H   -1.216929183  -3.106826880   0.411076517
  O   -2.098218112  -3.729656432  -1.326296387
  C   -2.218659971  -5.108111484  -1.765442325
  H   -3.305928005  -5.319770372  -1.607622817
  C   -0.208835965  -4.911820860  -0.385979300
  H    0.784657745  -5.014600189  -0.884240963
  C   -1.255780946  -5.905027278  -0.903188394
  H   -0.799331288  -6.786970156  -1.417808819
  H   -1.781033476  -6.384894631  -0.034129755
  O   -0.101301974  -5.212727184   1.027788159
  O   -2.684037690  -2.532052291  -3.575766607
  O   -3.529124178  -1.916823975  -1.142844959
  N   -1.913837391  -5.206589067  -3.230880671
  C   -0.576163917  -5.235778315  -3.723435028
  N   -0.426682092  -5.529249821  -5.104249691
  C   -1.504721195  -5.705012153  -6.026923867
  C   -2.838574567  -5.515086843  -5.459108207
  C   -3.002870961  -5.266173309  -4.132501621
  O    0.410616667  -5.020066745  -3.042317766
  H    0.538250551  -5.569498382  -5.460652419
  O   -1.194380060  -5.976558788  -7.180408147
  C   -3.985029472  -5.563409673  -6.409112856
  H   -4.268339984  -4.549357389  -6.734905850
  H   -3.737640707  -6.139448657  -7.316500156
  H   -4.876950616  -6.037215522  -5.972655365
  H   -3.997015167  -5.092917525  -3.692646328
  P    1.197716174  -4.630590771   1.825349555
  O    2.417207422  -4.826530849   0.741484936
  C    3.697995863  -5.227380115   1.308123268
  H    4.345814205  -4.334892573   1.172349609
  H    3.629547088  -5.486671511   2.388877865
  C    4.224103295  -6.420881493   0.506952671
  H    5.336231405  -6.481340963   0.603892459
  O    3.776094900  -7.659301319   1.114285867
  C    2.758604602  -8.301117748   0.319047229
  H    3.060950627  -9.377190675   0.302692126
  C    3.757371942  -6.455378514  -0.971542544
  H    3.346206295  -5.480003247  -1.320317954
  C    2.751350402  -7.611891546  -1.049548325
  H    1.742719590  -7.246399077  -1.341342609
  H    3.003829238  -8.323320421  -1.859678823
  O    4.866197335  -6.643212728  -1.840784914
  O    1.421122183  -5.079649603   3.198340720
  O    0.911043715  -3.011703472   1.603568969
  N    1.472160417  -8.187792268   1.090522892
  C    0.169396889  -8.379579994   0.429322069
  N   -0.966158162  -8.364787787   1.213652725
  C   -0.877756786  -8.190580830   2.564217300
  C    0.388997075  -8.020645167   3.227040127
  C    1.531616479  -8.032390849   2.474767999
  O    0.169470834  -8.498504177  -0.786560799
  N   -2.062148421  -8.154688593   3.260414339
  H   -2.076088924  -8.132348715   4.266675999
  H   -2.933226553  -8.362625111   2.790756950
  H    2.715253094  -5.108771675  -6.688240286
  H    2.529448561  -7.904679123   2.928142205
  H    0.437579036  -7.846603166   4.300738287
  H    5.327709553  -7.494766023  -1.674792132
  H   -1.854543801  -2.985597079  -4.875479198
  H   -3.361425450  -1.434030814  -0.285959808
  H    1.173837427  -2.389715034   2.326540762
  H    0.883291576  -8.436380973  -9.165489544
  H   -1.346578610   4.037938073  -5.312094233

