%mem=64gb
%nproc=28       
%Chk=snap_71.chk
# opt b3lyp/6-31g(d,p)  scf=(xqc, tight)  pop=min    

tetra snap_71 

2     1 
  O    2.399930038  -6.198862625  -6.940419022
  C    2.751356457  -4.860034525  -7.313140482
  H    3.271814286  -5.005434323  -8.289090199
  H    3.467565837  -4.463075660  -6.569914237
  C    1.563709903  -3.910375680  -7.499843312
  H    1.916313716  -2.844535692  -7.517652913
  O    1.044998501  -4.100607315  -8.853173678
  C   -0.303789851  -4.543118166  -8.837671837
  H   -0.818101078  -3.991937896  -9.666243949
  C    0.364100180  -4.053499639  -6.530089288
  H    0.513535797  -4.828145977  -5.742626793
  C   -0.851070769  -4.342525678  -7.426403572
  H   -1.588605872  -3.509773760  -7.403570218
  H   -1.442054820  -5.211377743  -7.044289140
  O    0.328664831  -2.757355615  -5.897305010
  N   -0.284885914  -6.004027466  -9.219221600
  C   -0.930390565  -6.591142298 -10.329075176
  C   -0.601499293  -7.976402727 -10.305317653
  N    0.244980192  -8.199217950  -9.201263804
  C    0.435741831  -7.015097064  -8.568381995
  N   -1.710976238  -5.974000811 -11.265533970
  C   -2.180788438  -6.806158053 -12.256090494
  N   -1.910621019  -8.191365323 -12.301943602
  C   -1.094364283  -8.888954514 -11.309597106
  N   -2.951793708  -6.240335315 -13.237817896
  H   -3.130855956  -5.238825946 -13.220489422
  H   -3.322020996  -6.764267882 -14.017001930
  O   -0.933843090 -10.073123887 -11.443145773
  H    1.137064258  -6.790530184  -7.677001295
  H   -2.288230631  -8.777517523 -13.061221653
  P   -0.772191753  -2.419743992  -4.708299580
  O   -1.386635397  -1.020623077  -5.355832010
  C   -0.914717513   0.213715447  -4.798284704
  H   -1.013562879   0.916290862  -5.652773723
  H    0.147695055   0.164832746  -4.491996005
  C   -1.827314300   0.620537150  -3.626430014
  H   -1.447391185   0.267143078  -2.633957777
  O   -1.738837674   2.070288800  -3.468653563
  C   -2.960021547   2.714742143  -3.841068240
  H   -3.161321050   3.458043474  -3.025636752
  C   -3.317425611   0.285557967  -3.896018107
  H   -3.456885221  -0.380797631  -4.785079526
  C   -4.025796638   1.644825502  -4.051049961
  H   -4.830391711   1.715538201  -3.273738514
  H   -4.558256406   1.707992986  -5.016623793
  O   -3.973814951  -0.318624281  -2.769120802
  O   -0.067089484  -2.244281551  -3.416271017
  O   -1.870281292  -3.537466681  -5.114695181
  N   -2.625261139   3.480950570  -5.094607664
  C   -1.355813097   3.935468406  -5.436813260
  C   -1.494995457   4.694978870  -6.643330962
  N   -2.841513600   4.706595315  -7.032829299
  C   -3.503764283   3.996671166  -6.117788211
  N   -0.115093361   3.760917195  -4.823053475
  C    0.976083876   4.391893990  -5.445125765
  N    0.896432187   5.104196128  -6.558097534
  C   -0.335459772   5.309271899  -7.217419889
  H    1.972973104   4.272592458  -4.963773312
  N   -0.343479519   6.061446065  -8.328419030
  H    0.510172768   6.489141500  -8.689267002
  H   -1.211974609   6.244337682  -8.833053821
  H   -4.576214792   3.819756398  -6.098245686
  P   -3.305465035  -1.714794396  -2.174922449
  O   -2.404869262  -0.982537239  -1.032890616
  C   -1.239242397  -1.725101267  -0.578037477
  H   -0.586238839  -1.986428811  -1.442555560
  H   -0.718538045  -0.984649816   0.071843967
  C   -1.753927024  -2.928044152   0.197635750
  H   -2.185584085  -2.655538022   1.189007435
  O   -2.895033711  -3.410083985  -0.603381443
  C   -2.896520168  -4.881196506  -0.657295911
  H   -3.926500874  -5.141686834  -0.307393035
  C   -0.796601292  -4.140813150   0.291883041
  H   -0.073347638  -4.176664331  -0.568954752
  C   -1.772695824  -5.334259848   0.270710949
  H   -1.272240501  -6.274294509  -0.036595680
  H   -2.139418084  -5.537462307   1.302494202
  O   -0.130382232  -4.197996243   1.545298756
  O   -2.579434590  -2.435055970  -3.269541909
  O   -4.675113830  -2.380672356  -1.623546610
  N   -2.744559047  -5.298665205  -2.076129257
  C   -1.483522870  -5.703318091  -2.631171615
  N   -1.510042510  -6.204450874  -3.943570410
  C   -2.659593450  -6.249109974  -4.798016341
  C   -3.893391322  -5.734281986  -4.174468468
  C   -3.904561487  -5.293196321  -2.891966984
  O   -0.438197667  -5.648825687  -2.001342907
  H   -0.595636186  -6.582160305  -4.305397728
  O   -2.498984924  -6.661125559  -5.929027790
  C   -5.117972435  -5.720127740  -5.020779112
  H   -4.964590681  -6.258423138  -5.973029802
  H   -5.972004236  -6.207654901  -4.525452736
  H   -5.424662290  -4.695706518  -5.279494053
  H   -4.819044946  -4.894112496  -2.424728412
  P    1.227510445  -3.265093581   1.785751894
  O    2.515282423  -4.213395894   1.417010455
  C    2.555852630  -5.122364736   0.310040907
  H    3.270650385  -5.899772566   0.674166658
  H    1.587192735  -5.612021442   0.113685499
  C    3.158655192  -4.378769870  -0.889627582
  H    3.867226710  -3.581053786  -0.547511632
  O    4.015442374  -5.317272013  -1.605937975
  C    3.560440828  -5.514712952  -2.952128247
  H    4.491919047  -5.598029341  -3.562198181
  C    2.137849664  -3.849508857  -1.920839821
  H    1.080052607  -4.173167011  -1.725633675
  C    2.650930682  -4.334265070  -3.283456251
  H    1.812408482  -4.575819641  -3.968799547
  H    3.222673717  -3.525587701  -3.784235770
  O    2.203561392  -2.415656991  -1.822751435
  O    1.306197568  -2.677189802   3.108305676
  O    1.050355958  -2.263211054   0.497540320
  N    2.883277259  -6.871349805  -2.946743829
  C    1.717329703  -7.209703155  -3.735296003
  N    1.136835803  -8.443414401  -3.613591581
  C    1.648903544  -9.362496982  -2.729532282
  C    2.815154514  -9.059285263  -1.938066882
  C    3.393507136  -7.826284357  -2.059465761
  O    1.276762523  -6.366794514  -4.539751622
  N    1.001837946 -10.560340129  -2.640312143
  H    1.332258154 -11.302771987  -2.042402459
  H    0.193942777 -10.755325906  -3.220856677
  H    2.173421959  -6.265162927  -5.956714893
  H    4.280788914  -7.533470084  -1.467659711
  H    3.229609759  -9.803113258  -1.257105741
  H    1.498163573  -2.023712778  -2.432884022
  H   -2.637311549  -3.678145175  -4.422314500
  H   -4.776259797  -2.452795756  -0.618936009
  H    1.793928246  -2.139244112  -0.201174368
  H    0.624410943  -9.107346659  -8.953900468
  H   -0.053021825   3.209050542  -3.950611184

