%mem=64gb
%nproc=28       
%Chk=snap_170.chk
# opt b3lyp/6-31g(d,p)  scf=(xqc, tight)  pop=min    

tetra snap_170 

2     1 
  O    3.210360686  -3.892278568  -4.073637042
  C    3.745314095  -3.187430313  -5.194224872
  H    4.444328433  -3.838349886  -5.757421103
  H    4.320196105  -2.371079300  -4.705724252
  C    2.657742604  -2.632080028  -6.124850990
  H    2.884061735  -1.588806386  -6.460419606
  O    2.704351343  -3.392503361  -7.371665113
  C    1.511144863  -4.132965627  -7.579207589
  H    1.214355237  -3.946987260  -8.644125322
  C    1.215621753  -2.744930134  -5.583054118
  H    1.196308680  -3.033540770  -4.502794541
  C    0.496257111  -3.741434530  -6.505974664
  H   -0.412190637  -3.287438835  -6.965928540
  H    0.109608725  -4.613453986  -5.927486185
  O    0.674595381  -1.410696944  -5.759222565
  N    1.895932919  -5.588032639  -7.479919070
  C    1.952087984  -6.499476334  -8.552977607
  C    2.448052439  -7.727363132  -8.020807278
  N    2.711418032  -7.534273630  -6.655833146
  C    2.376231241  -6.265028521  -6.340129246
  N    1.594419727  -6.293275512  -9.856758748
  C    1.754127784  -7.383231747 -10.677322447
  N    2.223830413  -8.642730416 -10.222061498
  C    2.596570431  -8.898901314  -8.843009076
  N    1.423154748  -7.237070300 -11.997673012
  H    1.103434590  -6.331660352 -12.338969821
  H    1.535586756  -7.972003469 -12.680938997
  O    2.961084352 -10.015786066  -8.548995658
  H    2.422531925  -5.819785047  -5.327190681
  H    2.319406595  -9.436029562 -10.873636825
  P   -0.659313020  -1.082191861  -4.858458490
  O   -1.017598877   0.411351564  -5.475483053
  C   -0.387760905   1.558309932  -4.852731816
  H   -0.187004843   2.231029697  -5.721934646
  H    0.574918556   1.288306687  -4.371989790
  C   -1.340645408   2.222912430  -3.864461120
  H   -0.765657679   2.761004283  -3.069505141
  O   -2.073526381   3.256631427  -4.609549405
  C   -3.396480179   3.413371952  -4.069633175
  H   -3.491147393   4.493463006  -3.796167414
  C   -2.466924117   1.360386472  -3.241752132
  H   -2.877980266   0.617554711  -3.974721214
  C   -3.547384007   2.406754134  -2.922110137
  H   -3.363741499   2.871407663  -1.929239329
  H   -4.566178780   1.969871275  -2.841167301
  O   -1.948703219   0.743460951  -2.066477061
  O   -0.335765363  -1.134424768  -3.398364620
  O   -1.749409597  -1.942214937  -5.665972955
  N   -4.364414798   3.145452832  -5.183781070
  C   -4.414031494   2.097228583  -6.096300232
  C   -5.652356073   2.221511829  -6.812635363
  N   -6.355257206   3.339232012  -6.340495761
  C   -5.602685233   3.873126747  -5.380676068
  N   -3.535575639   1.057014256  -6.389381102
  C   -3.933057162   0.143761773  -7.372161975
  N   -5.086452177   0.195103227  -8.025593756
  C   -5.996394113   1.249810964  -7.801534325
  H   -3.230448434  -0.695430849  -7.589222537
  N   -7.130992146   1.274112406  -8.524428647
  H   -7.331289549   0.562460082  -9.223396895
  H   -7.822644411   2.010636756  -8.385240013
  H   -5.845781045   4.754397471  -4.792495776
  P   -2.187322182  -0.909509035  -2.054453638
  O   -1.049286732  -1.456567907  -1.036777857
  C   -0.499784875  -2.768142676  -1.300186269
  H    0.172174735  -2.730951508  -2.182023163
  H    0.128680801  -2.920434049  -0.393499342
  C   -1.625574509  -3.803515981  -1.394788561
  H   -1.628876078  -4.481767216  -0.507211241
  O   -2.865905189  -3.035616087  -1.347322072
  C   -3.951072993  -3.847718279  -1.952782493
  H   -4.485618099  -4.297332348  -1.077521219
  C   -1.755192880  -4.627974265  -2.702450337
  H   -1.317116660  -4.145991380  -3.600480761
  C   -3.263205461  -4.882930183  -2.842133256
  H   -3.592656025  -4.849675991  -3.906855393
  H   -3.497754547  -5.923772785  -2.516818730
  O   -1.193100742  -5.941078445  -2.468322907
  O   -2.582829350  -1.352414981  -3.459033515
  O   -3.484268160  -0.834362505  -1.037300109
  N   -4.859592789  -2.880350085  -2.611254475
  C   -4.607494549  -2.417057849  -3.937781530
  N   -5.219877211  -1.205024303  -4.324471296
  C   -5.913389044  -0.318718185  -3.427254359
  C   -6.215725886  -0.905836417  -2.116431124
  C   -5.664619109  -2.084373668  -1.739041966
  O   -3.991264125  -3.079995572  -4.773476261
  H   -5.023635561  -0.872793244  -5.271197111
  O   -6.136917863   0.800245139  -3.844622306
  C   -7.095326605  -0.117534357  -1.211574060
  H   -6.503707468   0.426611672  -0.456330233
  H   -7.682418942   0.639120899  -1.759315469
  H   -7.821476195  -0.746161990  -0.674359321
  H   -5.823528019  -2.502391602  -0.735911511
  P    0.382952248  -6.132609482  -2.843935555
  O    1.072293675  -5.323412913  -1.586440279
  C    2.515026050  -5.402127288  -1.506249736
  H    2.997018158  -5.651354043  -2.479327471
  H    2.801080271  -4.358292479  -1.236966588
  C    2.889739794  -6.384635468  -0.394534112
  H    2.306237383  -6.209230108   0.544956974
  O    2.512199037  -7.752704347  -0.748943968
  C    3.676137765  -8.607818930  -0.878679179
  H    3.555696396  -9.353972151  -0.051027521
  C    4.421027645  -6.400799161  -0.146432155
  H    4.957872265  -5.523944147  -0.567659877
  C    4.920241919  -7.729593023  -0.744287435
  H    5.422596576  -7.559140349  -1.720339704
  H    5.682698474  -8.204638275  -0.095077821
  O    4.529825080  -6.394443748   1.275796986
  O    0.826218369  -5.603087856  -4.164608780
  O    0.564972868  -7.713024953  -2.613121597
  N    3.539778269  -9.301379546  -2.194591548
  C    3.546306174  -8.578343901  -3.464784355
  N    3.403967650  -9.310899971  -4.631993473
  C    3.285244610 -10.677299886  -4.619329517
  C    3.283403016 -11.396002037  -3.364781721
  C    3.398739294 -10.697530473  -2.199413481
  O    3.651740479  -7.361397196  -3.473232189
  N    3.154921663 -11.300774098  -5.821117832
  H    3.094127676 -12.306559573  -5.898055782
  H    3.171661216 -10.774625660  -6.699942909
  H    2.724950963  -4.713515852  -4.348805556
  H    3.389076040 -11.207825396  -1.222331265
  H    3.180675014 -12.482610874  -3.357038487
  H    5.446565493  -6.198030265   1.572169941
  H   -2.610391895  -2.262315175  -5.144275868
  H   -3.340386205  -1.185179966  -0.113161790
  H    1.342979234  -8.007364297  -1.983254773
  H    3.095213173  -8.283569195  -5.992467388
  H   -2.592376121   1.002899527  -5.936396374

