%mem=64gb
%nproc=28       
%Chk=snap_30.chk
# opt b3lyp/6-31g(d,p)  scf=(xqc, tight)  pop=min    

tetra snap_30 

2     1 
  O    1.195042695  -5.641530532  -6.925205609
  C    1.739191795  -4.313240381  -6.890381410
  H    2.846962094  -4.396865068  -6.914338898
  H    1.426532442  -3.917258411  -5.902049967
  C    1.221668095  -3.466865050  -8.055114342
  H    1.804314723  -2.515643555  -8.155628280
  O    1.528848244  -4.210557450  -9.280215942
  C    0.394860537  -4.305882056 -10.135236901
  H    0.755060955  -4.010987268 -11.157403360
  C   -0.305280382  -3.199888140  -8.085140638
  H   -0.881972245  -3.815677526  -7.353245521
  C   -0.734209915  -3.474279483  -9.535435738
  H   -0.849779136  -2.501023934 -10.071253100
  H   -1.735431941  -3.941745999  -9.596736386
  O   -0.538732169  -1.792261511  -7.882905491
  N    0.047424623  -5.773761195 -10.204963630
  C    0.403346535  -6.622860041 -11.279710467
  C   -0.050560612  -7.928124487 -10.935937387
  N   -0.655329400  -7.853053004  -9.669259485
  C   -0.599095820  -6.566329810  -9.241014099
  N    1.033224497  -6.271975189 -12.434767365
  C    1.233968270  -7.312588156 -13.319623726
  N    0.813374369  -8.635366334 -13.062774439
  C    0.128737402  -9.045884987 -11.837025054
  N    1.863085153  -7.016261310 -14.496513860
  H    2.182406670  -6.064008597 -14.670616202
  H    2.064869631  -7.705599800 -15.206854477
  O   -0.190984080 -10.198420661 -11.725906150
  H   -1.019776066  -6.167956474  -8.256579867
  H    0.972432268  -9.383360847 -13.756500156
  P   -0.682562968  -1.294814642  -6.318752430
  O   -2.102351759  -0.430594871  -6.372318580
  C   -1.962895211   0.990592657  -6.196080625
  H   -2.973906208   1.360540861  -6.468762279
  H   -1.224456652   1.417419456  -6.902065452
  C   -1.600083992   1.296929699  -4.731946056
  H   -0.516096496   1.101998023  -4.485944533
  O   -1.722570138   2.736417530  -4.523015698
  C   -2.858144061   3.051421818  -3.713759316
  H   -2.484107522   3.782318157  -2.950006193
  C   -2.565186353   0.617793208  -3.732667765
  H   -3.159780929  -0.207871541  -4.199865825
  C   -3.442101403   1.752101865  -3.164395515
  H   -3.387551252   1.730599284  -2.046941010
  H   -4.506686745   1.590705382  -3.407512348
  O   -1.736490385   0.161884458  -2.650460599
  O    0.438186309  -0.498852711  -5.800519826
  O   -1.076073976  -2.664281706  -5.585011723
  N   -3.790085403   3.788058478  -4.641499504
  C   -3.386804059   4.500241933  -5.766531484
  C   -4.553154985   5.141250006  -6.295906487
  N   -5.660194459   4.824374859  -5.496510354
  C   -5.206927080   4.034014462  -4.521468103
  N   -2.135289131   4.651923758  -6.363062442
  C   -2.085005808   5.492809455  -7.486840514
  N   -3.134560727   6.106619053  -8.012281303
  C   -4.424519193   5.972815042  -7.454799057
  H   -1.090291145   5.642993883  -7.963908519
  N   -5.439807008   6.626429426  -8.040951959
  H   -5.291481364   7.217688073  -8.859443940
  H   -6.388234266   6.566453504  -7.668855083
  H   -5.796262396   3.617866010  -3.708050423
  P   -1.803926092  -1.443016984  -2.267608074
  O   -0.227121437  -1.539208342  -1.902502869
  C    0.350549094  -2.804128221  -1.501721314
  H    0.608536348  -3.372569682  -2.422193707
  H    1.288222737  -2.479986515  -0.992397312
  C   -0.590162264  -3.547079734  -0.560133767
  H   -0.744296427  -3.009395191   0.414441381
  O   -1.904150834  -3.481492045  -1.210974699
  C   -2.363623139  -4.818927608  -1.607625727
  H   -3.447017732  -4.788679095  -1.334457626
  C   -0.266787504  -5.046031228  -0.359408637
  H    0.655306368  -5.399100866  -0.900279730
  C   -1.524157790  -5.799837712  -0.809419653
  H   -1.265137116  -6.740045385  -1.369680014
  H   -2.061285026  -6.202614762   0.085897224
  O   -0.147221509  -5.355386886   1.046156962
  O   -2.374802467  -2.233934336  -3.416533350
  O   -2.763551551  -1.288069090  -0.966152873
  N   -2.235950518  -4.969719003  -3.083002475
  C   -0.991812447  -5.313213304  -3.708572796
  N   -1.057778154  -5.603554227  -5.095255688
  C   -2.203286570  -5.394817491  -5.908951060
  C   -3.382064310  -4.867088060  -5.223000401
  C   -3.364728858  -4.657151460  -3.880570609
  O    0.066752869  -5.356874010  -3.111526519
  H   -0.158215109  -5.880289708  -5.554953160
  O   -2.108291383  -5.649476378  -7.110107331
  C   -4.553364584  -4.516514903  -6.073342528
  H   -4.538452796  -3.445625935  -6.333147204
  H   -4.547450082  -5.078543474  -7.022717961
  H   -5.515165481  -4.731753367  -5.587663109
  H   -4.229563975  -4.234727803  -3.350048819
  P    1.167657150  -4.807851149   1.851051424
  O    2.279561102  -4.669965051   0.647496287
  C    3.643930634  -5.030494283   1.010902369
  H    4.201231220  -4.071991552   0.944634168
  H    3.720750270  -5.441836900   2.042150427
  C    4.161152361  -6.045369588  -0.011480832
  H    5.279456953  -6.039659869  -0.021994407
  O    3.846726042  -7.392701408   0.420627503
  C    2.776308790  -7.964450096  -0.362222088
  H    3.149771104  -8.981692736  -0.636693870
  C    3.550320983  -5.886308220  -1.428490795
  H    3.115858722  -4.876103703  -1.604150810
  C    2.529902893  -7.026490017  -1.548638044
  H    1.487053937  -6.622493455  -1.576254492
  H    2.606464741  -7.559453883  -2.516520149
  O    4.564998050  -5.951082395  -2.419398541
  O    1.551111157  -5.478309810   3.090380225
  O    0.727444523  -3.216579710   1.960460187
  N    1.603211945  -8.123192861   0.563605476
  C    0.247434632  -8.346395803   0.027803569
  N   -0.776476189  -8.573200613   0.923311256
  C   -0.529345761  -8.624072888   2.264678860
  C    0.795072444  -8.441350469   2.800791695
  C    1.830120094  -8.208087541   1.937253310
  O    0.108755112  -8.271177039  -1.183685027
  N   -1.611857972  -8.830420025   3.086397494
  H   -1.494396860  -8.994650219   4.072775283
  H   -2.517300770  -9.045825610   2.690933774
  H    1.285140379  -5.998725612  -7.833563814
  H    2.866263078  -8.064604675   2.288640968
  H    0.967125382  -8.444357726   3.875864700
  H    5.034133863  -6.814861321  -2.418659343
  H   -1.556964865  -2.629528142  -4.603743010
  H   -2.998118191  -2.115957135  -0.437719620
  H    0.848025379  -2.753234266   2.828024307
  H   -1.074821942  -8.649140921  -9.193457858
  H   -1.316241118   4.170538879  -5.951715246

