%mem=64gb
%nproc=28       
%Chk=snap_91.chk
# opt b3lyp/6-31g(d,p)  scf=(xqc, tight)  pop=min    

tetra snap_91 

2     1 
  O    3.227170055  -4.578942751  -7.066169429
  C    3.484959281  -3.173971504  -7.014322676
  H    4.413382792  -3.072662830  -7.618992039
  H    3.701172234  -2.865774017  -5.972387248
  C    2.353625229  -2.327185317  -7.604940703
  H    2.610954395  -1.240167397  -7.587666992
  O    2.237790425  -2.625973310  -9.036734627
  C    0.982448021  -3.235852493  -9.315788437
  H    0.726834427  -2.962885110 -10.366992602
  C    0.949003118  -2.583646327  -6.998095747
  H    0.925389053  -3.479289563  -6.327507538
  C    0.027079653  -2.787158832  -8.212007570
  H   -0.484082908  -1.843648757  -8.488961621
  H   -0.806017279  -3.490135964  -7.985386248
  O    0.579438604  -1.372744361  -6.314326109
  N    1.247714013  -4.730146009  -9.273092297
  C    0.360596250  -5.763629889  -8.893570326
  C    1.143881722  -6.948525185  -8.767217272
  N    2.480028876  -6.620749059  -9.057947726
  C    2.540624583  -5.289449969  -9.327495577
  N   -0.976824504  -5.669742842  -8.659276992
  C   -1.569502278  -6.832986391  -8.220472490
  N   -0.877372717  -8.056448146  -8.108539006
  C    0.558460006  -8.186658644  -8.309760551
  N   -2.920347146  -6.802613087  -7.963906509
  H   -3.403951675  -5.912396612  -8.073152088
  H   -3.328143932  -7.417596364  -7.255984551
  O    1.076053647  -9.245614872  -8.056120030
  H    3.436716752  -4.700917999  -9.556840884
  H   -1.339466806  -8.867145150  -7.675381445
  P    0.045170607  -1.605428030  -4.749235431
  O   -0.445801147  -0.017714518  -4.673301407
  C    0.051446117   0.736919828  -3.536201586
  H    0.802956178   1.448471304  -3.948843880
  H    0.547863875   0.090059021  -2.777591142
  C   -1.147189910   1.484705469  -2.950991822
  H   -1.048907532   1.609324889  -1.841951605
  O   -1.094158748   2.844227282  -3.484842754
  C   -2.413718615   3.337673218  -3.752877020
  H   -2.547515134   4.242582535  -3.105234425
  C   -2.550618518   0.941057322  -3.335912550
  H   -2.550928102   0.306206483  -4.254715954
  C   -3.410103610   2.199202713  -3.499335197
  H   -4.003937572   2.369495100  -2.566369939
  H   -4.178528284   2.094292920  -4.288749175
  O   -3.109543287   0.212781004  -2.216190252
  O    1.098020237  -2.002894629  -3.794692106
  O   -1.143513900  -2.636339313  -5.155092242
  N   -2.405745533   3.795980188  -5.175249584
  C   -1.859152077   3.194628006  -6.305649478
  C   -2.103009565   4.085826836  -7.403799451
  N   -2.784429192   5.223466522  -6.946720819
  C   -2.954089622   5.056637367  -5.638317012
  N   -1.191729600   1.990904615  -6.509393409
  C   -0.753862784   1.725339668  -7.815391506
  N   -0.960842948   2.515190311  -8.859684106
  C   -1.642241705   3.742780348  -8.714610581
  H   -0.197483433   0.770798557  -7.962536298
  N   -1.819906258   4.510270094  -9.802502073
  H   -1.461906964   4.234367666 -10.715700392
  H   -2.309164693   5.404708741  -9.739778511
  H   -3.442121770   5.750487354  -4.955858894
  P   -2.558192958  -1.324407804  -2.103996541
  O   -2.067083615  -1.443042262  -0.563595791
  C   -1.202223893  -2.598332030  -0.342098492
  H   -0.702487534  -2.946655132  -1.273795965
  H   -0.420232315  -2.177109456   0.341212812
  C   -1.978893109  -3.702024503   0.373003743
  H   -2.228128873  -3.425012870   1.426132089
  O   -3.295002664  -3.903372485  -0.253161196
  C   -3.585706252  -5.303531773  -0.398002160
  H   -4.578818267  -5.437562159   0.101932642
  C   -1.271916379  -5.085717940   0.271704577
  H   -0.636697706  -5.167323874  -0.648796245
  C   -2.435661770  -6.090680717   0.223725361
  H   -2.179511058  -7.022679012  -0.307420196
  H   -2.675706847  -6.424484243   1.263258807
  O   -0.535302703  -5.351833416   1.459286496
  O   -1.486053076  -1.656606023  -3.103861323
  O   -3.873572120  -2.234631148  -2.310124238
  N   -3.759122962  -5.557686388  -1.874409825
  C   -2.676214646  -5.455468444  -2.800213346
  N   -2.885662939  -6.037872627  -4.072158269
  C   -4.049360484  -6.778723597  -4.442212380
  C   -5.173689590  -6.684712197  -3.504731289
  C   -4.996718192  -6.118251334  -2.285412313
  O   -1.621536458  -4.892044441  -2.552429275
  H   -2.066675469  -6.059910322  -4.727491761
  O   -3.985652743  -7.435351129  -5.471609547
  C   -6.477811749  -7.249422719  -3.942470590
  H   -6.400807556  -7.770418524  -4.913357928
  H   -6.875581471  -7.986969879  -3.226832942
  H   -7.245022728  -6.467360583  -4.066641943
  H   -5.813588528  -6.066354916  -1.548397125
  P    1.091037228  -4.997411449   1.446357538
  O    1.806336501  -6.254736954   0.658837279
  C    1.591144483  -6.534808918  -0.726704543
  H    1.830098600  -7.623969493  -0.786820984
  H    0.540015585  -6.376935115  -1.033393213
  C    2.598026233  -5.732371920  -1.560818091
  H    3.477275095  -5.416177174  -0.943474952
  O    3.172067476  -6.652096442  -2.543003756
  C    2.948889158  -6.189251524  -3.880816718
  H    3.872327080  -6.455157165  -4.447527338
  C    1.999648238  -4.559154459  -2.372331150
  H    0.887161900  -4.546826000  -2.415037051
  C    2.625215630  -4.703961138  -3.768336060
  H    1.959340804  -4.300154396  -4.554025567
  H    3.555450911  -4.096467008  -3.824205163
  O    2.447583314  -3.353417940  -1.730926853
  O    1.671676231  -4.732871508   2.746194857
  O    0.998408404  -3.816165866   0.308059108
  N    1.806148989  -7.045227106  -4.399287037
  C    0.693291121  -6.533918308  -5.186244926
  N   -0.446802147  -7.310957980  -5.299694853
  C   -0.456205406  -8.605663660  -4.844575044
  C    0.698627628  -9.178015072  -4.211523041
  C    1.781547057  -8.375577515  -3.970466081
  O    0.806198128  -5.447669509  -5.744783499
  N   -1.608867944  -9.319693390  -5.060581870
  H   -1.713208165 -10.264224961  -4.714553135
  H   -2.456986737  -8.837709934  -5.353661937
  H    2.473998498  -4.846284110  -6.464843522
  H    2.669915717  -8.741035237  -3.422410698
  H    0.718901769 -10.234320310  -3.938207682
  H    2.044563753  -2.567431390  -2.227913174
  H   -1.624285913  -3.093392222  -4.379244279
  H   -3.918639749  -3.084316887  -1.723732830
  H    1.839329790  -3.474606790  -0.190418287
  H    3.247166895  -7.286545888  -9.030170815
  H   -0.956739901   1.349193571  -5.723699554

