%mem=64gb
%nproc=28       
%Chk=snap_38.chk
# opt b3lyp/6-31g(d,p)  scf=(xqc, tight)  pop=min    

tetra snap_38 

2     1 
  O    2.116238174  -4.283235786  -7.669859567
  C    2.158135390  -3.032752139  -8.380370390
  H    3.123757218  -3.097673523  -8.930564341
  H    2.218049011  -2.203604401  -7.637976056
  C    0.994595143  -2.824302460  -9.348146782
  H    1.022477287  -1.784465294  -9.766618254
  O    1.212655131  -3.667654968 -10.529313947
  C    0.061944894  -4.441320081 -10.827426211
  H   -0.042000765  -4.448225662 -11.941179834
  C   -0.422631110  -3.180305690  -8.824128077
  H   -0.416716154  -3.844331715  -7.919541528
  C   -1.104875954  -3.873567896 -10.012670377
  H   -1.690250553  -3.130527760 -10.601136453
  H   -1.842658310  -4.634262564  -9.699551367
  O   -1.173277245  -1.971808838  -8.565543574
  N    0.372632641  -5.856281316 -10.390310333
  C   -0.122143693  -7.037850911 -10.983811199
  C    0.380759811  -8.121768394 -10.211783092
  N    1.168628557  -7.581693735  -9.174272206
  C    1.157423966  -6.231087085  -9.290063888
  N   -0.924610811  -7.146821842 -12.085070085
  C   -1.220751362  -8.440802734 -12.449538669
  N   -0.767098834  -9.572279009 -11.736527646
  C    0.075422012  -9.492593006 -10.543780646
  N   -2.016295219  -8.618772843 -13.551481339
  H   -2.314856672  -7.809100985 -14.091032818
  H   -2.239815336  -9.529056447 -13.926294726
  O    0.394961927 -10.521715577 -10.010504172
  H    1.700407663  -5.451372357  -8.604265960
  H   -1.019659270 -10.523842894 -12.041894156
  P   -0.825854909  -1.322220976  -7.086750705
  O   -2.128228670  -0.336553166  -6.815124787
  C   -1.835905989   1.066004439  -6.663853712
  H   -2.819305204   1.540567890  -6.867984246
  H   -1.098202745   1.425820124  -7.408902301
  C   -1.362210066   1.323641879  -5.223316865
  H   -0.266578529   1.133687424  -5.068894800
  O   -1.489599316   2.756644863  -4.967127831
  C   -2.466245153   3.018380656  -3.948896980
  H   -1.916229641   3.573544528  -3.143398221
  C   -2.230026861   0.596508473  -4.165965324
  H   -2.845367194  -0.229639441  -4.596226422
  C   -3.093471825   1.695360549  -3.515736721
  H   -3.082562107   1.580468811  -2.407264347
  H   -4.153236482   1.577006223  -3.812737840
  O   -1.280994587   0.135832242  -3.192335904
  O    0.479722995  -0.647684414  -6.986134967
  O   -1.134759769  -2.578993937  -6.142238092
  N   -3.439864034   3.968440351  -4.584837093
  C   -3.118788437   4.924756879  -5.543059213
  C   -4.293604502   5.718186089  -5.750402094
  N   -5.325160089   5.246336380  -4.926872403
  C   -4.818985493   4.222562240  -4.238467580
  N   -1.934881471   5.179423389  -6.233778420
  C   -1.957812124   6.275091329  -7.114853771
  N   -3.014779162   7.042500024  -7.330734677
  C   -4.241278090   6.815725398  -6.669157062
  H   -1.015818133   6.507850363  -7.661307165
  N   -5.267441387   7.638660006  -6.934350811
  H   -5.172326899   8.413718644  -7.591922337
  H   -6.171011977   7.519350077  -6.474341310
  H   -5.341337125   3.631962668  -3.490264889
  P   -1.426107153  -1.402200184  -2.606885543
  O   -0.664533801  -1.119727651  -1.204439541
  C   -0.050770530  -2.289506296  -0.589360395
  H    0.677702216  -2.764875438  -1.288681134
  H    0.505949000  -1.846624900   0.264138013
  C   -1.197468009  -3.199291618  -0.152594587
  H   -1.818586888  -2.757620807   0.663535199
  O   -2.094071847  -3.229652315  -1.322563472
  C   -2.345384695  -4.615159464  -1.749878043
  H   -3.456716621  -4.640091285  -1.859560501
  C   -0.817587164  -4.664601793   0.158846519
  H    0.265116259  -4.888229597  -0.068063830
  C   -1.786909192  -5.518389770  -0.663944951
  H   -1.279537410  -6.431897642  -1.084265531
  H   -2.584390196  -5.942250287  -0.016081153
  O   -1.131550499  -4.812285334   1.558651520
  O   -0.866628157  -2.386175883  -3.581690564
  O   -3.054983061  -1.384199728  -2.426615573
  N   -1.709348142  -4.829375897  -3.074961582
  C   -0.280295880  -4.822497100  -3.217642999
  N    0.206144773  -5.104288740  -4.528325899
  C   -0.610316011  -5.292783835  -5.668108734
  C   -2.055402453  -5.220547619  -5.444886446
  C   -2.546819367  -4.975436738  -4.202584055
  O    0.493737082  -4.616088537  -2.306950871
  H    1.231126542  -5.157241309  -4.626616866
  O   -0.037236230  -5.479826576  -6.744746087
  C   -2.923192378  -5.372013593  -6.645593341
  H   -2.435114691  -5.993125572  -7.413995201
  H   -3.885523352  -5.849645264  -6.416089634
  H   -3.131635169  -4.389014910  -7.101716469
  H   -3.626301369  -4.895640347  -4.017119376
  P   -0.214573688  -5.835252403   2.464156149
  O    1.148266016  -5.846969666   1.561570969
  C    2.444827512  -5.802013612   2.221754025
  H    2.468637843  -4.948184289   2.929345649
  H    2.605683251  -6.765253125   2.747065759
  C    3.467314367  -5.627991275   1.089681430
  H    4.387134889  -5.129467194   1.473355684
  O    3.940290243  -6.936766410   0.674992311
  C    3.342177856  -7.308894778  -0.590516782
  H    4.097816613  -7.975613129  -1.066678744
  C    2.902596537  -4.946312075  -0.192044318
  H    1.832103888  -4.629093576  -0.082423311
  C    3.077885764  -5.988092020  -1.309406290
  H    2.174558408  -6.008696400  -1.972238415
  H    3.913339207  -5.730424457  -1.983917133
  O    3.554094236  -3.716647088  -0.451588951
  O   -0.829164637  -7.100600725   2.867086008
  O    0.216090165  -4.838076466   3.691948547
  N    2.127380393  -8.122950334  -0.239459139
  C    0.777257327  -7.849199703  -0.742903113
  N   -0.303869147  -8.307955745  -0.009236902
  C   -0.126827292  -9.117747978   1.071979489
  C    1.195922944  -9.525944115   1.489809911
  C    2.276630161  -8.986212912   0.854757944
  O    0.641534066  -7.206758445  -1.775266264
  N   -1.255799187  -9.590551572   1.707409215
  H   -1.175744138  -9.897610469   2.669100154
  H   -2.139581055  -9.135126651   1.499330200
  H    1.316304731  -4.336852893  -7.064092913
  H    3.307220845  -9.197810722   1.181103045
  H    1.317229197 -10.244209135   2.297816696
  H    4.500587377  -3.831467776  -0.685750679
  H   -1.068860786  -2.464786243  -5.069305864
  H   -3.455939482  -1.941751131  -1.688874919
  H   -0.208864208  -4.970012955   4.580865695
  H    1.634333969  -8.142739034  -8.468312643
  H   -1.118331353   4.564293435  -6.086879795

