%mem=64gb
%nproc=28       
%Chk=snap_57.chk
# opt b3lyp/6-31g(d,p)  scf=(xqc, tight)  pop=min    

tetra snap_57 

2     1 
  O    1.458698377  -6.579649170  -6.658780079
  C    2.435296294  -5.586827542  -6.994905446
  H    2.886618042  -5.964596019  -7.936862389
  H    3.199862487  -5.546269624  -6.194329743
  C    1.814128551  -4.203189186  -7.230058520
  H    2.579248190  -3.390560299  -7.157120236
  O    1.389846179  -4.124216238  -8.630778892
  C   -0.018597876  -4.086181265  -8.743048219
  H   -0.231781109  -3.387309213  -9.591270378
  C    0.569114301  -3.881695661  -6.374874854
  H    0.388203047  -4.664639242  -5.599751538
  C   -0.596096835  -3.723967579  -7.374423250
  H   -0.977022990  -2.678610478  -7.371123591
  H   -1.469345771  -4.341982595  -7.076667479
  O    0.881100935  -2.623647161  -5.738759764
  N   -0.479743803  -5.457348638  -9.190836943
  C   -0.869256168  -5.809957388 -10.503083661
  C   -1.124697239  -7.209421804 -10.494334293
  N   -0.866773371  -7.685811932  -9.192793755
  C   -0.477617189  -6.634524863  -8.426286498
  N   -1.004591130  -4.984894011 -11.584791937
  C   -1.405124513  -5.615600209 -12.740081081
  N   -1.676808594  -6.997992481 -12.817973604
  C   -1.560430420  -7.908662721 -11.679088644
  N   -1.573233062  -4.833050143 -13.855315052
  H   -1.324802207  -3.847733732 -13.811505552
  H   -1.767403242  -5.215075300 -14.769538379
  O   -1.831451082  -9.066769283 -11.854222092
  H   -0.165999210  -6.662661978  -7.340917497
  H   -1.985337272  -7.427118077 -13.703277168
  P   -0.092780195  -2.145697668  -4.481609087
  O   -1.316242456  -1.446539007  -5.397972058
  C   -1.182929315  -0.030810363  -5.583330784
  H   -1.884493389   0.173792100  -6.418747979
  H   -0.158051797   0.245471097  -5.902179168
  C   -1.595373488   0.712325975  -4.299817957
  H   -0.822031046   0.641063101  -3.486012219
  O   -1.609178326   2.144478935  -4.606683316
  C   -2.922660724   2.694861384  -4.495325938
  H   -2.814077714   3.599048349  -3.840134519
  C   -3.020208158   0.335879021  -3.827838122
  H   -3.435797008  -0.540650635  -4.381302013
  C   -3.869543362   1.610772972  -3.987757759
  H   -4.297203645   1.880963188  -2.987440838
  H   -4.747430605   1.429535847  -4.632987698
  O   -3.025885450   0.099357519  -2.408018908
  O    0.580798023  -1.221841576  -3.558029444
  O   -0.577245291  -3.636487067  -4.051732627
  N   -3.271706316   3.170037898  -5.882973787
  C   -2.367166904   3.454917541  -6.898681336
  C   -3.124463931   3.975161161  -7.999261669
  N   -4.482116933   4.011433030  -7.653314934
  C   -4.564771281   3.545179032  -6.406347186
  N   -0.981224071   3.315574078  -6.970208838
  C   -0.380499234   3.729147485  -8.170951565
  N   -1.037905273   4.217233938  -9.212214222
  C   -2.438738625   4.389869557  -9.185571375
  H    0.725800876   3.629955336  -8.245369805
  N   -3.033811783   4.930057257 -10.261035368
  H   -2.496651803   5.228035221 -11.075842618
  H   -4.042430036   5.085780232 -10.280929724
  H   -5.472857444   3.457693481  -5.814026066
  P   -2.631957088  -1.430953656  -1.924026732
  O   -1.853069489  -1.024705182  -0.565247737
  C   -0.862018976  -1.983908557  -0.091884631
  H   -0.115448532  -2.216491615  -0.877841515
  H   -0.355134588  -1.402301333   0.719024275
  C   -1.658766336  -3.164092822   0.450760805
  H   -2.259000577  -2.873139219   1.347666769
  O   -2.643339249  -3.424523444  -0.617485190
  C   -2.907404057  -4.864071076  -0.734132800
  H   -4.013948702  -4.940874652  -0.588270090
  C   -0.954061896  -4.523699590   0.666828925
  H   -0.063650491  -4.655026841  -0.001405999
  C   -2.074010311  -5.537559075   0.347541033
  H   -1.669438805  -6.533412869   0.073438529
  H   -2.666953792  -5.732039305   1.272314055
  O   -0.640588234  -4.770352051   2.027512991
  O   -1.919587344  -2.151456765  -3.027029658
  O   -4.133256804  -1.984682136  -1.613055087
  N   -2.578989205  -5.270166520  -2.128207159
  C   -1.342081590  -5.913056928  -2.482978791
  N   -1.228987904  -6.339961679  -3.822734852
  C   -2.141841772  -6.008326680  -4.870705559
  C   -3.351432918  -5.294328957  -4.434320672
  C   -3.528950779  -4.951899050  -3.134654414
  O   -0.440837412  -6.088420963  -1.680713631
  H   -0.333030181  -6.808730659  -4.074492020
  O   -1.832373154  -6.327093817  -6.007883164
  C   -4.351887797  -4.952259127  -5.483153229
  H   -4.062850874  -5.350474475  -6.470239270
  H   -5.343753537  -5.374962342  -5.255180795
  H   -4.469239997  -3.863768962  -5.593900894
  H   -4.415015966  -4.391052062  -2.797262175
  P    0.688961906  -4.091950444   2.757912470
  O    1.972470026  -5.065524330   2.433511604
  C    2.148323511  -5.817196339   1.229109227
  H    2.721543581  -6.705717076   1.592656157
  H    1.200908881  -6.176505331   0.793278336
  C    3.021088609  -4.990250741   0.273554159
  H    3.706908197  -4.325092816   0.853831066
  O    3.920148772  -5.918254865  -0.400243332
  C    3.737272945  -5.876622415  -1.824419386
  H    4.760961862  -6.003785930  -2.251118057
  C    2.261586783  -4.236624318  -0.851185180
  H    1.178853980  -4.538149015  -0.926214208
  C    3.039810355  -4.549117038  -2.129392087
  H    2.377429802  -4.574442355  -3.028912566
  H    3.782233387  -3.764158327  -2.375398035
  O    2.171732761  -2.848791960  -0.540360828
  O    0.488684845  -3.841891279   4.169410287
  O    0.901601386  -2.818076431   1.745614636
  N    2.917104292  -7.099449801  -2.170374657
  C    2.050276247  -7.149949381  -3.329879239
  N    1.288811407  -8.277058026  -3.568213635
  C    1.374547871  -9.352815258  -2.724880941
  C    2.266259287  -9.341528104  -1.591263258
  C    3.005573998  -8.218668794  -1.339483184
  O    2.003012499  -6.177668286  -4.088072268
  N    0.565900853 -10.422277372  -2.996357934
  H    0.622415279 -11.276152824  -2.461786879
  H   -0.011956787 -10.434378021  -3.827510551
  H    1.380349793  -6.676207328  -5.658638884
  H    3.698344050  -8.149659660  -0.481314147
  H    2.354971029 -10.218807097  -0.951640745
  H    2.962873136  -2.335992593  -0.831569575
  H   -1.299083031  -3.651948283  -3.301109493
  H   -4.346473710  -2.232157001  -0.661585680
  H    1.721752950  -2.741695878   1.163711713
  H   -0.966466512  -8.657184029  -8.915764128
  H   -0.465313499   2.967067572  -6.143326638

