%mem=64gb
%nproc=28       
%Chk=snap_14.chk
# opt b3lyp/6-31g(d,p)  scf=(xqc, tight)  pop=min    

tetra snap_14 

2     1 
  O   -0.413610771  -6.417244144  -7.435730503
  C    0.646827079  -5.594743891  -6.941832539
  H    1.570111772  -6.087463940  -7.323307140
  H    0.659612704  -5.631858630  -5.831456655
  C    0.569068998  -4.149028229  -7.447882051
  H    1.153489774  -3.463733070  -6.779641660
  O    1.327129971  -4.064154724  -8.694248174
  C    0.482709523  -3.835986369  -9.807100890
  H    1.021755921  -3.089955387 -10.449568029
  C   -0.856338708  -3.626219377  -7.759122881
  H   -1.677884639  -4.285878462  -7.384918102
  C   -0.895827891  -3.424176424  -9.284293938
  H   -1.092250966  -2.344557993  -9.501426321
  H   -1.738427157  -3.959876715  -9.758218982
  O   -1.030408558  -2.280986714  -7.250014278
  N    0.429257397  -5.125784539 -10.594490952
  C    1.028315860  -5.340181008 -11.858205950
  C    0.857811931  -6.721800422 -12.161416297
  N    0.190145003  -7.322768382 -11.079377041
  C   -0.052014029  -6.366859467 -10.146648205
  N    1.643042236  -4.420521860 -12.655040586
  C    2.146181923  -4.926504249 -13.836776757
  N    2.020133087  -6.280224072 -14.214370804
  C    1.354829069  -7.292642061 -13.394327399
  N    2.788811316  -4.049399420 -14.667794569
  H    2.897881190  -3.076955244 -14.384221893
  H    3.214090614  -4.324390652 -15.542672252
  O    1.300944492  -8.415374975 -13.816256607
  H   -0.529391270  -6.502605001  -9.130594510
  H    2.407687053  -6.617488993 -15.109772286
  P   -1.302296007  -2.101756467  -5.643880051
  O   -1.444353566  -0.454556727  -5.633875460
  C   -0.565859166   0.262385160  -4.734033366
  H    0.038823354   0.923076748  -5.395896899
  H    0.112697579  -0.414188441  -4.166582341
  C   -1.431467110   1.094968616  -3.786811350
  H   -0.940807189   1.198403165  -2.781490079
  O   -1.433232138   2.470258174  -4.298801204
  C   -2.751177711   2.963903219  -4.463862078
  H   -2.740787255   3.990265427  -4.029858474
  C   -2.918379348   0.669050830  -3.649773954
  H   -3.236526431  -0.114393094  -4.374444630
  C   -3.721206421   1.972267565  -3.822259238
  H   -4.051608500   2.319998919  -2.810354385
  H   -4.658574102   1.815929786  -4.386140873
  O   -3.186904673   0.269108700  -2.302244894
  O   -0.295568553  -2.687794861  -4.736517597
  O   -2.837590096  -2.550270773  -5.466507025
  N   -2.989363399   3.072213412  -5.949500650
  C   -3.448795041   4.175068085  -6.662089287
  C   -3.508526435   3.780540391  -8.040319349
  N   -3.069851733   2.454250550  -8.168145712
  C   -2.763032345   2.043642680  -6.937214662
  N   -3.837426471   5.457755583  -6.269659355
  C   -4.279465547   6.318130978  -7.295282444
  N   -4.356139532   5.989258343  -8.572539288
  C   -3.975997336   4.707492084  -9.023710897
  H   -4.589035875   7.343985146  -6.993040191
  N   -4.080104328   4.443032732 -10.336323376
  H   -4.425269209   5.140851189 -10.995016584
  H   -3.816578940   3.532890649 -10.709758261
  H   -2.375891655   1.056486575  -6.655020877
  P   -2.768937392  -1.274281252  -1.863492630
  O   -1.159358773  -0.949489784  -1.790467655
  C   -0.236160995  -2.025749279  -1.501973175
  H   -0.145474644  -2.675271197  -2.406917224
  H    0.723653720  -1.490564507  -1.341612567
  C   -0.715431901  -2.762628829  -0.252954771
  H   -0.742461602  -2.127756731   0.665458747
  O   -2.130321812  -3.055186867  -0.542033973
  C   -2.344175917  -4.502555244  -0.670367953
  H   -3.344987389  -4.652848719  -0.197956762
  C   -0.030634190  -4.123336006   0.017352457
  H    0.754974440  -4.365620441  -0.743901939
  C   -1.177741373  -5.139564366   0.052964152
  H   -0.883436216  -6.147301471  -0.355722018
  H   -1.426711331  -5.410175531   1.111586058
  O    0.529157336  -4.014249185   1.343865765
  O   -3.193042551  -2.307982483  -2.851266668
  O   -3.520534564  -1.171438520  -0.435009259
  N   -2.437303112  -4.844299481  -2.123106526
  C   -1.276935269  -5.096658991  -2.907401969
  N   -1.496157181  -5.457448850  -4.259135891
  C   -2.766483044  -5.452983725  -4.918115079
  C   -3.891896691  -5.087151766  -4.064495849
  C   -3.706584990  -4.778058844  -2.751697988
  O   -0.131995360  -5.046172954  -2.487865414
  H   -0.645183851  -5.670883317  -4.807037525
  O   -2.741911433  -5.718568506  -6.114712419
  C   -5.233619506  -5.059099243  -4.710462684
  H   -6.006237945  -4.593070134  -4.084248318
  H   -5.205465073  -4.499976822  -5.661221543
  H   -5.579149988  -6.079062536  -4.951041241
  H   -4.543006971  -4.469395180  -2.107336784
  P    2.001587132  -4.694507311   1.596483429
  O    2.108224837  -5.693172275   0.305209712
  C    3.436630016  -6.149983226  -0.089055739
  H    3.983731288  -5.279612393  -0.503033941
  H    3.968224297  -6.582647790   0.784246099
  C    3.216486367  -7.234710718  -1.152620150
  H    4.026168719  -7.217722749  -1.918922483
  O    3.375241233  -8.524091808  -0.494675646
  C    2.112699421  -9.235953369  -0.487883451
  H    2.394788084 -10.312905320  -0.488608166
  C    1.811155650  -7.258902479  -1.816123843
  H    1.079999999  -6.591480287  -1.305071023
  C    1.384926155  -8.735586906  -1.735344913
  H    0.282278776  -8.860692170  -1.693150156
  H    1.720418964  -9.285452057  -2.637501104
  O    1.944592095  -6.844243686  -3.180226077
  O    2.244613968  -5.166258979   2.960140358
  O    3.015628899  -3.491763556   1.094268645
  N    1.463900139  -8.887488775   0.823235377
  C    0.261428573  -8.050594867   0.940097385
  N    0.054855284  -7.352613602   2.117327880
  C    0.855088613  -7.555342356   3.202090112
  C    1.954986011  -8.492262972   3.153313952
  C    2.256129934  -9.087374740   1.963141891
  O   -0.495951881  -7.969639546  -0.017607109
  N    0.535221868  -6.876122705   4.359520009
  H    1.266172671  -6.714884917   5.042350077
  H   -0.136400060  -6.116940886   4.290576371
  H   -1.242794452  -6.324954233  -6.857772101
  H    3.133799264  -9.741950242   1.850811023
  H    2.537435207  -8.694447623   4.049490873
  H    1.345511048  -6.069473516  -3.312943472
  H   -3.188049187  -2.642651638  -4.467332034
  H   -3.436716296  -1.950186936   0.207035618
  H    3.564669649  -3.027868998   1.775908833
  H   -0.049172800  -8.310952335 -11.036857016
  H   -3.772372657   5.765249797  -5.296769494

