%mem=64gb
%nproc=28       
%Chk=snap_108.chk
# opt b3lyp/6-31g(d,p)  scf=(xqc, tight)  pop=min    

tetra snap_108 

2     1 
  O    3.501225654  -4.312361936  -6.250548861
  C    3.570021703  -3.114741997  -7.018456564
  H    4.205717491  -3.289303550  -7.909750449
  H    4.107788778  -2.418929113  -6.335929038
  C    2.203699128  -2.556463721  -7.423341280
  H    2.244871639  -1.455847317  -7.619078799
  O    1.862579840  -3.112087996  -8.739214835
  C    0.711545770  -3.934282736  -8.668647611
  H    0.105696146  -3.712970952  -9.582057550
  C    1.038607861  -2.914355233  -6.473939073
  H    1.385922511  -3.471713095  -5.559799788
  C    0.039199325  -3.722218700  -7.315492247
  H   -0.933088062  -3.190233800  -7.424272739
  H   -0.225412914  -4.679898360  -6.809567719
  O    0.474014932  -1.638532789  -6.104081236
  N    1.214906920  -5.360525332  -8.811330855
  C    0.466730874  -6.533295541  -8.582866411
  C    1.355377020  -7.629693687  -8.787612211
  N    2.620748976  -7.109266652  -9.084597520
  C    2.528562082  -5.749290273  -9.106099691
  N   -0.869771971  -6.631703467  -8.303038028
  C   -1.332490557  -7.909951386  -8.165625730
  N   -0.537756883  -9.053860193  -8.384824623
  C    0.896055981  -8.998299595  -8.644786696
  N   -2.647333815  -8.092114988  -7.738474194
  H   -3.178482891  -7.211988355  -7.569512685
  H   -3.207809386  -8.818693050  -8.175829102
  O    1.503965356 -10.031787969  -8.731867185
  H    3.326750804  -5.038616618  -9.340349411
  H   -0.926347929  -9.997982436  -8.244773052
  P   -0.414558301  -1.659713782  -4.703109928
  O   -0.667263447  -0.020049799  -4.693111731
  C    0.090555210   0.727373939  -3.709252572
  H    0.759251216   1.393133790  -4.304135391
  H    0.709847730   0.067406811  -3.061165972
  C   -0.899965410   1.546927313  -2.885585324
  H   -0.531686267   1.687983336  -1.836621458
  O   -0.915485799   2.887650576  -3.474090709
  C   -2.230512947   3.451641007  -3.411243184
  H   -2.133089127   4.400125190  -2.823414737
  C   -2.381691496   1.080584262  -2.890616678
  H   -2.653591650   0.475474339  -3.789743690
  C   -3.172284743   2.395702684  -2.821072136
  H   -3.425273520   2.619765071  -1.755852963
  H   -4.155208197   2.335292978  -3.322280477
  O   -2.648559231   0.366038911  -1.680682337
  O    0.343599541  -2.239495104  -3.574635932
  O   -1.765200377  -2.256018332  -5.384862573
  N   -2.608155364   3.826700067  -4.809639047
  C   -2.568101430   3.077456472  -5.981734406
  C   -3.138407842   3.896015307  -7.013984865
  N   -3.504019276   5.140603302  -6.480864214
  C   -3.186829648   5.100018641  -5.189332459
  N   -2.113310654   1.793269646  -6.267767999
  C   -2.233525219   1.365811990  -7.598900333
  N   -2.771561069   2.078105931  -8.579152973
  C   -3.250821908   3.384505847  -8.345671596
  H   -1.855769445   0.343074258  -7.826952278
  N   -3.787171668   4.061651722  -9.374906983
  H   -3.841802011   3.657008508 -10.308693053
  H   -4.142205351   5.011015642  -9.251397673
  H   -3.323187571   5.901889902  -4.466640172
  P   -2.465835490  -1.284223907  -1.787095822
  O   -1.315494530  -1.391958276  -0.647358778
  C   -0.525396761  -2.617762427  -0.661809297
  H   -0.098395000  -2.789322042  -1.678414777
  H    0.297651757  -2.395142065   0.055304211
  C   -1.457384450  -3.718304756  -0.175944325
  H   -1.770149673  -3.580099445   0.887867988
  O   -2.679575443  -3.475596054  -0.957448551
  C   -3.175856723  -4.710243315  -1.556309903
  H   -4.248677392  -4.727083423  -1.235828216
  C   -1.042703661  -5.177700919  -0.462097581
  H   -0.178307988  -5.264750513  -1.181288104
  C   -2.326041409  -5.843130493  -0.987654202
  H   -2.096098522  -6.654956438  -1.704956005
  H   -2.843970589  -6.354248787  -0.139839058
  O   -0.787111245  -5.842729240   0.787993145
  O   -2.126079206  -1.666611080  -3.201577055
  O   -3.980795164  -1.665120174  -1.338335362
  N   -3.116959296  -4.581441120  -3.037100848
  C   -2.033725708  -5.127939533  -3.806214060
  N   -2.330676917  -5.410136659  -5.160607912
  C   -3.561885385  -5.068429152  -5.812563176
  C   -4.454341685  -4.202323602  -5.020730070
  C   -4.242927160  -4.022137806  -3.694658438
  O   -0.943323474  -5.369057338  -3.326488009
  H   -1.644115730  -5.993307208  -5.683331682
  O   -3.760120979  -5.517192979  -6.923479863
  C   -5.604627180  -3.591066480  -5.739140097
  H   -5.624995320  -3.881656310  -6.805910775
  H   -6.570931968  -3.914457227  -5.317545645
  H   -5.576552515  -2.492749902  -5.707006154
  H   -4.923662144  -3.429109470  -3.062951596
  P    0.765020622  -5.872414257   1.323442082
  O    1.487634134  -6.245503947  -0.109980175
  C    2.931732842  -6.102185268  -0.164164257
  H    3.333734184  -5.530540842   0.695831836
  H    3.336542735  -7.140666915  -0.141732780
  C    3.283444405  -5.407700275  -1.478913935
  H    4.270779183  -4.887817011  -1.394181103
  O    3.502223091  -6.467808231  -2.474702941
  C    2.906229596  -6.120962476  -3.728315521
  H    3.676214477  -6.347740583  -4.502237821
  C    2.219452988  -4.476504916  -2.107030456
  H    1.176998332  -4.739640063  -1.791569128
  C    2.434805175  -4.671910159  -3.616020238
  H    1.525493117  -4.444692169  -4.209865140
  H    3.218794066  -3.982534234  -4.006954237
  O    2.511508146  -3.147210486  -1.688374407
  O    1.042512338  -6.649683340   2.518978831
  O    1.090065284  -4.251714389   1.408093302
  N    1.722735735  -7.042171201  -3.953380387
  C    1.023252242  -6.958816466  -5.227107703
  N   -0.097935100  -7.738509182  -5.426376142
  C   -0.555993561  -8.543850955  -4.413972452
  C    0.101996012  -8.612796061  -3.145657928
  C    1.220156535  -7.838426490  -2.937643849
  O    1.451612652  -6.187418164  -6.084756911
  N   -1.728434329  -9.218006348  -4.674792670
  H   -2.038248080  -9.968875017  -4.076599781
  H   -2.103543526  -9.197907251  -5.613864608
  H    2.857368458  -4.968738761  -6.614580226
  H    1.754630050  -7.819630321  -1.969150084
  H   -0.267724434  -9.263787892  -2.356935845
  H    1.978080198  -2.512766552  -2.240043179
  H   -2.515546158  -2.508283600  -4.726315084
  H   -4.121983449  -2.013594850  -0.403950768
  H    1.435207038  -3.887014706   2.264637123
  H    3.444286578  -7.678394911  -9.265699317
  H   -1.613174735   1.217864839  -5.554132055

