%mem=64gb
%nproc=28       
%Chk=snap_94.chk
# opt b3lyp/6-31g(d,p)  scf=(xqc, tight)  pop=min    

tetra snap_94 

2     1 
  O    2.569139197  -4.484645552  -6.927462349
  C    2.994112381  -3.125516172  -6.878480561
  H    3.898476603  -3.117472209  -7.525065225
  H    3.277961988  -2.842754578  -5.844884453
  C    1.938903133  -2.159053261  -7.430688654
  H    2.182632086  -1.100762108  -7.178948843
  O    2.039980118  -2.170421747  -8.897847484
  C    0.867591840  -2.734236339  -9.470343338
  H    0.761743872  -2.273808520 -10.481832738
  C    0.463616709  -2.518417438  -7.100659643
  H    0.355036797  -3.505097573  -6.586677664
  C   -0.253293904  -2.483253791  -8.465541303
  H   -0.709826646  -1.480253828  -8.629177792
  H   -1.109531960  -3.189474254  -8.523271849
  O   -0.152456203  -1.474068808  -6.336995226
  N    1.170916042  -4.207769286  -9.662905971
  C    0.489873299  -5.330237475  -9.134035182
  C    1.356288865  -6.452344859  -9.299623426
  N    2.543689836  -6.000569065  -9.891340007
  C    2.439489352  -4.660576063 -10.085172392
  N   -0.750695489  -5.374736353  -8.576402692
  C   -1.137785648  -6.608354532  -8.097741440
  N   -0.334518245  -7.759302269  -8.209670726
  C    0.994800910  -7.763308955  -8.800033174
  N   -2.409305225  -6.722626968  -7.577729491
  H   -2.976067840  -5.875570108  -7.549233380
  H   -2.576135062  -7.337609759  -6.774358327
  O    1.621850834  -8.790524940  -8.799265527
  H    3.201944542  -3.995025070 -10.501415130
  H   -0.647912240  -8.641548174  -7.776871655
  P    0.057871251  -1.474433166  -4.668207128
  O    0.206017024   0.169922592  -4.744296616
  C    0.512206607   0.966764908  -3.578392911
  H    1.188832886   1.750995760  -3.998105674
  H    1.060718926   0.377576962  -2.811211490
  C   -0.755499134   1.609526614  -3.013194382
  H   -0.635364793   1.802441982  -1.914866887
  O   -0.839593521   2.939558184  -3.621599418
  C   -2.204138222   3.317575001  -3.840470813
  H   -2.353163966   4.282552232  -3.291356507
  C   -2.131910346   0.952126773  -3.310158907
  H   -2.164836296   0.351201783  -4.252234324
  C   -3.088539370   2.149686220  -3.386521223
  H   -3.536666276   2.337751678  -2.379498302
  H   -3.964439257   1.963701177  -4.036034146
  O   -2.576559460   0.145092183  -2.204257615
  O    1.125881901  -2.384193229  -4.245218850
  O   -1.589599523  -1.611840245  -4.397398393
  N   -2.336874292   3.603265541  -5.303261863
  C   -1.954234167   2.834146410  -6.398715576
  C   -2.323788495   3.569851540  -7.573551462
  N   -2.911826699   4.787266148  -7.198736232
  C   -2.912572966   4.808135642  -5.868166614
  N   -1.353955605   1.584705344  -6.509390914
  C   -1.132724033   1.102925745  -7.804264706
  N   -1.464870266   1.739912338  -8.920561144
  C   -2.063559855   3.016534382  -8.868050419
  H   -0.655500959   0.088038553  -7.877068086
  N   -2.360475641   3.634773764 -10.024480766
  H   -2.155268474   3.210116496 -10.926848813
  H   -2.793525314   4.559547854 -10.026666244
  H   -3.291948294   5.608498554  -5.235672858
  P   -1.802716897  -1.291196848  -2.045998698
  O   -1.860919664  -1.466086664  -0.431268141
  C   -1.069510871  -2.605590566   0.018638166
  H   -0.377214488  -2.989578520  -0.762390519
  H   -0.447865679  -2.172074996   0.843688127
  C   -1.998711950  -3.680832895   0.575269793
  H   -2.397379215  -3.400061400   1.578671868
  O   -3.195199399  -3.828525032  -0.274396561
  C   -3.624366704  -5.212866427  -0.274545991
  H   -4.654925960  -5.190743745   0.159448843
  C   -1.364969426  -5.101539147   0.558891531
  H   -0.735732252  -5.253076437  -0.360720685
  C   -2.599146785  -6.019813254   0.524671203
  H   -2.379561705  -7.018468007   0.109372264
  H   -2.944648600  -6.224408456   1.566024732
  O   -0.640635237  -5.364735058   1.751601524
  O   -0.365849970  -1.283796261  -2.558474014
  O   -2.796158791  -2.446504133  -2.603913061
  N   -3.721154542  -5.633483388  -1.715136369
  C   -2.572653705  -5.693020521  -2.560129785
  N   -2.765987575  -6.285604605  -3.825199532
  C   -3.953904507  -6.962119607  -4.250350040
  C   -5.103485725  -6.795485247  -3.354200405
  C   -4.960496608  -6.163505559  -2.161095537
  O   -1.478194706  -5.248650065  -2.246895529
  H   -1.935016837  -6.352076407  -4.452958693
  O   -3.873174654  -7.594855218  -5.290978214
  C   -6.404624596  -7.346727462  -3.818738053
  H   -6.274433169  -8.081649323  -4.634043317
  H   -6.956638275  -7.864925516  -3.019132885
  H   -7.064764282  -6.556719270  -4.214592441
  H   -5.810469941  -6.032976008  -1.473291399
  P    1.013798528  -5.184833279   1.688040905
  O    1.605963297  -6.434373416   0.793843427
  C    1.340569045  -6.628759088  -0.598022156
  H    1.515670263  -7.725670297  -0.714969690
  H    0.287202269  -6.399052870  -0.861617445
  C    2.359402331  -5.842873366  -1.432711602
  H    3.230976968  -5.511699272  -0.815131125
  O    2.949903270  -6.790797575  -2.380238269
  C    2.789600488  -6.340613546  -3.733036372
  H    3.734722935  -6.619405376  -4.257668174
  C    1.772146823  -4.698018726  -2.293856543
  H    0.661669531  -4.727636936  -2.395524883
  C    2.476572351  -4.855656880  -3.651684340
  H    1.861862003  -4.445181023  -4.484558293
  H    3.412718064  -4.255189187  -3.660723207
  O    2.139767771  -3.462542078  -1.666207910
  O    1.651817102  -5.071503547   2.982176468
  O    0.999785925  -3.921530264   0.634177854
  N    1.670579905  -7.207774402  -4.286549979
  C    0.523216545  -6.718899671  -5.025081894
  N   -0.521997136  -7.597134446  -5.274005902
  C   -0.451302382  -8.914386849  -4.902511790
  C    0.711073515  -9.427074854  -4.236178342
  C    1.721735536  -8.557930207  -3.921609101
  O    0.465775773  -5.559901985  -5.424275691
  N   -1.530505774  -9.686344295  -5.249993796
  H   -1.605908072 -10.649310403  -4.948892274
  H   -2.393218535  -9.233822770  -5.551183203
  H    1.955425184  -4.702975808  -6.161933602
  H    2.614115882  -8.885955557  -3.354547887
  H    0.792898515 -10.485653983  -3.985301030
  H    1.733826650  -2.716021663  -2.210702701
  H   -2.040125567  -2.494236557  -4.555004772
  H   -3.099374017  -3.165715385  -1.909107532
  H    1.794864945  -3.674959199   0.054256616
  H    3.329989604  -6.605673255 -10.117896160
  H   -0.977167134   1.073447389  -5.674562863

