%mem=64gb
%nproc=28       
%Chk=snap_180.chk
# opt b3lyp/6-31g(d,p)  scf=(xqc, tight)  pop=min    

tetra snap_180 

2     1 
  O    3.159321075  -4.200663988  -4.605184254
  C    3.411285058  -2.967377402  -5.291824894
  H    4.405640272  -3.140726775  -5.761530516
  H    3.499450111  -2.166550992  -4.530319221
  C    2.359872080  -2.615842570  -6.346908260
  H    2.468791891  -1.556798467  -6.694123092
  O    2.622473873  -3.386488843  -7.557307635
  C    1.551673031  -4.269612931  -7.858699140
  H    1.363101326  -4.152046288  -8.957652682
  C    0.904749236  -2.921839304  -5.924192269
  H    0.842571478  -3.287482565  -4.866615382
  C    0.380667639  -3.960806808  -6.924167825
  H   -0.497545636  -3.570680828  -7.483665079
  H   -0.004928626  -4.856833690  -6.383927357
  O    0.203115126  -1.667095585  -6.092204278
  N    2.066736874  -5.671237021  -7.646727891
  C    1.935609752  -6.728080433  -8.565800141
  C    2.517854687  -7.877767418  -7.955093878
  N    3.009856088  -7.491704365  -6.692004356
  C    2.734236543  -6.179537911  -6.514665735
  N    1.362416763  -6.686745711  -9.808517567
  C    1.381157180  -7.877042007 -10.489304965
  N    1.922089043  -9.071131546  -9.949667923
  C    2.531115351  -9.145691616  -8.632803712
  N    0.825483822  -7.904481107 -11.741690634
  H    0.467593827  -7.042594207 -12.149081852
  H    0.845396948  -8.719623545 -12.336522082
  O    2.948687005 -10.227613398  -8.280732928
  H    3.003963493  -5.528822799  -5.616014424
  H    1.899432692  -9.950311688 -10.487198618
  P   -1.032058826  -1.433218091  -5.023746298
  O   -1.711128508  -0.070275171  -5.680903654
  C   -0.901324177   1.126904028  -5.550463712
  H   -1.182526605   1.724084205  -6.447895515
  H    0.180951174   0.899534930  -5.626008526
  C   -1.252134437   1.871814203  -4.256580772
  H   -0.355495060   2.032526885  -3.607053670
  O   -1.673424062   3.210166629  -4.658176408
  C   -2.904968153   3.580383666  -4.028834096
  H   -2.728237445   4.600208424  -3.602113107
  C   -2.424617754   1.283401045  -3.428689391
  H   -3.044627745   0.556317296  -4.021536456
  C   -3.272782160   2.495649917  -3.021289187
  H   -3.022423173   2.796197281  -1.977187029
  H   -4.361532839   2.261492708  -2.985533164
  O   -1.844984349   0.699112100  -2.264349699
  O   -0.458375360  -1.289718959  -3.641879365
  O   -2.011412570  -2.602444189  -5.505337508
  N   -3.913109995   3.719811186  -5.128710544
  C   -4.364237331   2.787104763  -6.058728513
  C   -5.234458214   3.492198171  -6.958126356
  N   -5.313752011   4.840970764  -6.580510839
  C   -4.531328310   4.972346113  -5.512369007
  N   -4.118990848   1.426768300  -6.240897987
  C   -4.732941597   0.820484410  -7.347706740
  N   -5.544380008   1.431570594  -8.197815070
  C   -5.848416426   2.801018567  -8.047566123
  H   -4.506442604  -0.255034238  -7.517746041
  N   -6.679301043   3.373757009  -8.935799525
  H   -7.090930746   2.842560334  -9.700694029
  H   -6.920459748   4.362803276  -8.863331487
  H   -4.353149394   5.888825911  -4.953651725
  P   -2.130737040  -0.931258527  -2.105784291
  O   -0.891614758  -1.396750540  -1.167259714
  C   -0.373257875  -2.726518636  -1.389145302
  H    0.199057740  -2.748364905  -2.339612345
  H    0.348138703  -2.827028090  -0.547421722
  C   -1.507799434  -3.751100635  -1.291218138
  H   -1.408010504  -4.377542829  -0.371689847
  O   -2.734779359  -2.972516214  -1.148430678
  C   -3.884587481  -3.818388130  -1.561921639
  H   -4.328534686  -4.178387346  -0.599460019
  C   -1.792246150  -4.646890384  -2.524314454
  H   -1.517779881  -4.199969504  -3.505340335
  C   -3.295587566  -4.942115863  -2.419352590
  H   -3.773678496  -5.040507494  -3.422912221
  H   -3.452842270  -5.940812910  -1.950655286
  O   -1.124843445  -5.917839522  -2.324874451
  O   -2.706599485  -1.480021201  -3.409154948
  O   -3.301619520  -0.740518170  -0.958110443
  N   -4.853255130  -2.894904339  -2.202822004
  C   -4.766468295  -2.589766838  -3.594734395
  N   -5.320282195  -1.364097124  -4.026917127
  C   -5.778472899  -0.326840526  -3.140743415
  C   -6.027731902  -0.789520381  -1.769158538
  C   -5.522436143  -1.971842746  -1.337957754
  O   -4.334158754  -3.386606428  -4.426735253
  H   -5.221551861  -1.140290710  -5.019753971
  O   -5.868610833   0.786049380  -3.623470212
  C   -6.801875315   0.125032608  -0.886543711
  H   -7.204164051  -0.375542122   0.006329500
  H   -6.175175246   0.963373401  -0.537347180
  H   -7.664752045   0.568709478  -1.412166256
  H   -5.615859978  -2.298908424  -0.294009958
  P    0.414960863  -5.972513124  -2.871156275
  O    1.199188760  -5.152000479  -1.672987938
  C    2.640188429  -5.290666517  -1.652332362
  H    3.069135323  -5.633488097  -2.624255723
  H    2.987486903  -4.249787335  -1.463672931
  C    3.010625488  -6.207836427  -0.486458456
  H    2.445703165  -5.952617550   0.446524095
  O    2.581841651  -7.576706425  -0.761631957
  C    3.705748096  -8.493884451  -0.773601461
  H    3.475459084  -9.203310709   0.062296955
  C    4.541445179  -6.247383423  -0.245719469
  H    5.108534668  -5.495863421  -0.836079653
  C    4.986254539  -7.685972841  -0.562206671
  H    5.651477312  -7.710140644  -1.450594773
  H    5.587221305  -8.104880441   0.271426128
  O    4.666594350  -5.953483382   1.145493321
  O    0.666987736  -5.285309382  -4.169851499
  O    0.760474700  -7.534061388  -2.767844045
  N    3.637773179  -9.216559072  -2.076327226
  C    3.775794069  -8.526717239  -3.365898284
  N    3.671265638  -9.278878191  -4.521734612
  C    3.508657683 -10.639738503  -4.473941939
  C    3.392069580 -11.328992425  -3.206651664
  C    3.446125986 -10.605008564  -2.053561325
  O    3.947395054  -7.320017103  -3.375352573
  N    3.454214857 -11.299857631  -5.660704871
  H    3.340480158 -12.301391609  -5.714140129
  H    3.512046166 -10.795477889  -6.551167873
  H    2.206664857  -4.259432223  -4.273835431
  H    3.344670836 -11.086137696  -1.068227065
  H    3.258481208 -12.411399433  -3.181661636
  H    5.597538342  -5.759550457   1.395121458
  H   -2.890751185  -2.773631001  -4.964424585
  H   -3.025018767  -0.915574738  -0.014132721
  H    1.523838722  -7.813150951  -2.103618162
  H    3.450875850  -8.148579389  -5.996325425
  H   -3.490987307   0.888797567  -5.607752392

