%mem=64gb
%nproc=28       
%Chk=snap_96.chk
# opt b3lyp/6-31g(d,p)  scf=(xqc, tight)  pop=min    

tetra snap_96 

2     1 
  O    2.966862192  -4.816703445  -7.081667189
  C    3.363939137  -3.476030232  -6.813988247
  H    4.356103852  -3.416015933  -7.316052873
  H    3.498037826  -3.326586848  -5.723733061
  C    2.416050599  -2.418337416  -7.386439474
  H    2.778920039  -1.389223223  -7.141441938
  O    2.503344684  -2.455195615  -8.852162573
  C    1.257575398  -2.849770803  -9.413436855
  H    1.208360682  -2.380676238 -10.424845700
  C    0.909053591  -2.568410425  -7.041503383
  H    0.650918555  -3.520691823  -6.518933609
  C    0.189671412  -2.448658009  -8.399612294
  H   -0.131692562  -1.394305586  -8.566932429
  H   -0.751420082  -3.039446688  -8.438352664
  O    0.537980036  -1.408094488  -6.279145144
  N    1.369158454  -4.350980968  -9.604540809
  C    0.525795345  -5.374652669  -9.109639438
  C    1.261108791  -6.594818592  -9.203888850
  N    2.526914738  -6.299627996  -9.732988593
  C    2.598613573  -4.960966741  -9.940371952
  N   -0.735221830  -5.254817917  -8.618153303
  C   -1.283779123  -6.418893346  -8.118922448
  N   -0.621498104  -7.661773202  -8.170552504
  C    0.723159952  -7.838185649  -8.696837566
  N   -2.566790636  -6.356116113  -7.632386538
  H   -3.016856297  -5.441583388  -7.607221462
  H   -2.875023317  -6.990655117  -6.887102245
  O    1.223760884  -8.931610343  -8.632126556
  H    3.460909905  -4.394510118 -10.305553842
  H   -1.041518288  -8.481955962  -7.709032413
  P    0.189682795  -1.645255673  -4.660880106
  O   -0.251822458  -0.046159780  -4.572629313
  C    0.395135121   0.754525750  -3.550297677
  H    1.189931838   1.341637107  -4.061837676
  H    0.853508936   0.127199491  -2.753512198
  C   -0.703990572   1.659022142  -2.999907409
  H   -0.477009303   1.982905582  -1.952771756
  O   -0.702363312   2.885779908  -3.801185975
  C   -2.037232536   3.396553697  -3.931013263
  H   -2.022215966   4.425606891  -3.487529095
  C   -2.155635413   1.116861678  -3.122356761
  H   -2.303705578   0.428489567  -3.988824157
  C   -2.992115851   2.394685393  -3.263913447
  H   -3.323585491   2.747002127  -2.257092132
  H   -3.937824169   2.235140918  -3.815807594
  O   -2.527641964   0.481759617  -1.880546727
  O    1.322413869  -2.099318418  -3.835614515
  O   -1.096436401  -2.601790725  -4.909965561
  N   -2.309445949   3.543244329  -5.396477270
  C   -1.944414543   2.733387731  -6.467719202
  C   -2.533577951   3.308651165  -7.643552268
  N   -3.243275876   4.466710514  -7.293638751
  C   -3.107737678   4.605509201  -5.977156281
  N   -1.180886644   1.575341618  -6.559397685
  C   -1.031996500   1.012143748  -7.829740056
  N   -1.560712604   1.502136533  -8.945391916
  C   -2.331116951   2.683357809  -8.915751819
  H   -0.426331908   0.064948790  -7.886853118
  N   -2.831752540   3.151140905 -10.072747143
  H   -2.652289146   2.683092513 -10.959084617
  H   -3.396290914   4.001828520 -10.094054183
  H   -3.524289634   5.404250054  -5.365739941
  P   -2.142694584  -1.110994426  -1.834084559
  O   -1.748115584  -1.347695961  -0.280010337
  C   -1.076937971  -2.626893651  -0.075529589
  H   -0.579865067  -3.000745713  -0.998360700
  H   -0.283093872  -2.356919445   0.672842036
  C   -2.037323589  -3.640357753   0.543632732
  H   -2.291661593  -3.380249620   1.599453413
  O   -3.340975330  -3.641671020  -0.143560457
  C   -3.809882346  -4.986222821  -0.351561709
  H   -4.842376280  -4.990350824   0.080551427
  C   -1.521442511  -5.098947186   0.389340441
  H   -0.919792595  -5.229827936  -0.550867581
  C   -2.810283776  -5.931955615   0.312773356
  H   -2.665685788  -6.892740365  -0.212232716
  H   -3.131304556  -6.223007968   1.341333965
  O   -0.808399117  -5.485234055   1.572218795
  O   -1.074492398  -1.533505090  -2.805337236
  O   -3.542785550  -1.854641456  -2.143418018
  N   -3.920965554  -5.197781045  -1.843011392
  C   -2.775400640  -5.186840472  -2.696792074
  N   -2.908600044  -5.854013268  -3.935670838
  C   -4.076876251  -6.558795073  -4.360187698
  C   -5.262510827  -6.353859547  -3.519349042
  C   -5.150876551  -5.724346353  -2.323271652
  O   -1.731016875  -4.614943415  -2.424421476
  H   -2.056143836  -5.933562377  -4.535526814
  O   -3.972941678  -7.254465619  -5.359431930
  C   -6.556802258  -6.864242244  -4.044680764
  H   -7.264694102  -6.047950712  -4.262770970
  H   -6.428984703  -7.427836824  -4.986678201
  H   -7.053734118  -7.550622854  -3.340707772
  H   -6.020370022  -5.577980271  -1.664177213
  P    0.831552905  -5.532373702   1.365610643
  O    0.828776202  -6.284063565  -0.125962479
  C    2.033472491  -6.905788132  -0.591276357
  H    2.675297855  -7.260376562   0.242260574
  H    1.664981758  -7.793735579  -1.148100292
  C    2.770288379  -5.933315617  -1.526187148
  H    3.698588931  -5.515678746  -1.070050168
  O    3.249571637  -6.745939281  -2.651568399
  C    2.803971129  -6.212257393  -3.905489092
  H    3.653607482  -6.357905517  -4.613657605
  C    1.896730293  -4.821959733  -2.159212630
  H    0.802849978  -5.013269911  -2.063706599
  C    2.367912634  -4.781730033  -3.620110107
  H    1.583914313  -4.375425776  -4.288597145
  H    3.219637661  -4.073769111  -3.725428394
  O    2.202593651  -3.594530691  -1.485000442
  O    1.649505409  -6.110942342   2.413145320
  O    1.052013549  -3.983149482   0.883805475
  N    1.648545137  -7.095369325  -4.352793079
  C    0.529876582  -6.582892140  -5.125924929
  N   -0.603847990  -7.361033593  -5.251982217
  C   -0.620636848  -8.651092068  -4.779663310
  C    0.528868574  -9.216103013  -4.130811166
  C    1.624200915  -8.419967219  -3.915907556
  O    0.617501685  -5.479854029  -5.662599286
  N   -1.773868220  -9.351332386  -5.015179096
  H   -1.907509937 -10.284898992  -4.650633959
  H   -2.605036170  -8.860300435  -5.346022074
  H    2.154802469  -5.082235996  -6.569262160
  H    2.524662263  -8.787330463  -3.388052507
  H    0.534488188 -10.261508815  -3.819537523
  H    1.833415552  -2.826238269  -2.027995488
  H   -1.518590811  -3.019647635  -4.081574771
  H   -3.719172574  -2.716789655  -1.600366492
  H    1.771070148  -3.765466949   0.182948552
  H    3.250853702  -6.995572975  -9.892834734
  H   -0.701948067   1.166231299  -5.723922223

