%mem=64gb
%nproc=28       
%Chk=snap_138.chk
# opt b3lyp/6-31g(d,p)  scf=(xqc, tight)  pop=min    

tetra snap_138 

2     1 
  O    2.380717086  -3.893214281  -5.705844043
  C    2.647230115  -3.281084593  -6.988128261
  H    3.260698823  -3.958175101  -7.615644845
  H    3.201868014  -2.340666963  -6.798262821
  C    1.287190786  -3.008951382  -7.638149071
  H    1.315254543  -2.101715822  -8.294236004
  O    0.992643550  -4.086185470  -8.578547116
  C   -0.126995586  -4.856208067  -8.160536527
  H   -0.701259173  -5.090298476  -9.094818653
  C    0.103885023  -2.948335789  -6.642117388
  H    0.435109379  -3.032879995  -5.573320885
  C   -0.866851707  -4.061665547  -7.080425678
  H   -1.793885301  -3.617499038  -7.515261627
  H   -1.215643720  -4.680829431  -6.226891077
  O   -0.475707908  -1.642744048  -6.888298944
  N    0.424589157  -6.155993194  -7.633376867
  C    0.370518153  -7.409602723  -8.276392461
  C    1.210397518  -8.288741230  -7.528255425
  N    1.781669534  -7.554746295  -6.475945241
  C    1.319663047  -6.289680097  -6.549907700
  N   -0.338641861  -7.756918972  -9.390935552
  C   -0.190059229  -9.066347513  -9.783401631
  N    0.611265125 -10.006074646  -9.085570811
  C    1.377911640  -9.669101606  -7.897581470
  N   -0.863098987  -9.463061817 -10.907245363
  H   -1.422946975  -8.782885386 -11.421043528
  H   -0.795958247 -10.391744989 -11.297350604
  O    2.036949331 -10.540198560  -7.375547610
  H    1.609513027  -5.420355946  -5.888360149
  H    0.676455457 -10.983541316  -9.407194749
  P   -1.431387272  -1.088518203  -5.666469045
  O   -1.501537020   0.549110449  -5.942170552
  C   -0.392616466   1.321121551  -5.429183708
  H   -0.276589312   2.132677517  -6.187542834
  H    0.543499543   0.728016242  -5.403669846
  C   -0.723606724   1.921768845  -4.057710387
  H    0.109112730   1.761635707  -3.326340231
  O   -0.763956524   3.368606501  -4.268438800
  C   -1.933992098   3.949048002  -3.693634133
  H   -1.571830439   4.844395146  -3.126201667
  C   -2.086772531   1.548932029  -3.417684937
  H   -2.810415736   1.105292595  -4.155715644
  C   -2.629688625   2.872542984  -2.860526341
  H   -2.364574662   2.957049442  -1.777525287
  H   -3.734131062   2.925720488  -2.869116617
  O   -1.829546080   0.672934751  -2.313954372
  O   -0.802389619  -1.456925649  -4.353720715
  O   -2.841900941  -1.499650581  -6.317992846
  N   -2.784554680   4.450128971  -4.822709252
  C   -3.440320493   3.767510070  -5.846302015
  C   -4.096095849   4.761371457  -6.648134416
  N   -3.823761177   6.038674142  -6.136978177
  C   -3.046234387   5.853738143  -5.073824197
  N   -3.566764538   2.416613265  -6.164667428
  C   -4.331009308   2.102898564  -7.303019952
  N   -4.959597648   2.988298736  -8.060973334
  C   -4.874604597   4.368310006  -7.782669218
  H   -4.412425194   1.021380519  -7.561808972
  N   -5.521580850   5.224361475  -8.591525955
  H   -6.063029676   4.896815491  -9.390555060
  H   -5.487979202   6.231005963  -8.426332336
  H   -2.634180255   6.633271045  -4.436247826
  P   -2.268195899  -0.894656606  -2.606504802
  O   -0.998526500  -1.659730523  -1.950715395
  C   -0.768351068  -3.053655045  -2.255010393
  H   -1.195210621  -3.361852083  -3.227158344
  H    0.349527278  -3.091461196  -2.331099250
  C   -1.251017970  -3.892904223  -1.063653093
  H   -0.799967667  -3.554540061  -0.096722041
  O   -2.677152223  -3.711841742  -0.835021249
  C   -3.441289478  -4.847454703  -1.293415071
  H   -4.185399940  -5.026466065  -0.476751461
  C   -1.054170120  -5.411786523  -1.303062443
  H   -0.363519371  -5.639154580  -2.146536190
  C   -2.463852833  -5.996196764  -1.511353536
  H   -2.559289966  -6.469887722  -2.514558917
  H   -2.682404209  -6.837024268  -0.807080508
  O   -0.443893426  -5.845642038  -0.067455873
  O   -2.955414797  -0.999053689  -3.959740697
  O   -3.409964011  -1.140561958  -1.472238865
  N   -4.175504744  -4.365025007  -2.509670068
  C   -3.545305214  -4.301956547  -3.787907916
  N   -4.124213593  -3.413352387  -4.723038189
  C   -5.105920061  -2.420985903  -4.392400360
  C   -5.838909425  -2.692223680  -3.148731487
  C   -5.353200600  -3.598623687  -2.266327999
  O   -2.562677009  -4.956785068  -4.102964488
  H   -3.627077023  -3.296356055  -5.627031935
  O   -5.230636178  -1.479414219  -5.168443941
  C   -7.089086530  -1.922692146  -2.916004946
  H   -7.152015834  -1.034960986  -3.569419253
  H   -7.983010645  -2.534485223  -3.124487000
  H   -7.172879461  -1.555392545  -1.881500950
  H   -5.851462862  -3.795206481  -1.305957908
  P    0.007251289  -7.428258927  -0.000959111
  O    1.143801341  -7.500398593  -1.188142039
  C    2.524828222  -7.663130617  -0.816319648
  H    2.647884562  -8.321214554   0.069314835
  H    2.938299498  -8.185068715  -1.703548473
  C    3.191833743  -6.296008627  -0.587793674
  H    3.050355617  -5.928737752   0.452783763
  O    4.625525806  -6.558339545  -0.690241784
  C    5.156656249  -5.961405264  -1.886944666
  H    6.223300231  -5.737430364  -1.652642743
  C    2.869998335  -5.211280345  -1.657358950
  H    2.226761916  -5.603695984  -2.479250932
  C    4.259794629  -4.758129409  -2.157764182
  H    4.243359888  -4.423694506  -3.214336911
  H    4.621871141  -3.872839989  -1.596771003
  O    2.090584588  -4.143836060  -1.158015979
  O   -1.087421333  -8.391255683  -0.113360126
  O    0.916038752  -7.406500707   1.359445841
  N    5.102924366  -7.051544060  -2.936332193
  C    4.262991077  -6.990083777  -4.120924318
  N    3.903676712  -8.175295194  -4.745022280
  C    4.448303170  -9.375541215  -4.362622335
  C    5.411144662  -9.422957404  -3.287675442
  C    5.676156748  -8.283000047  -2.583562970
  O    3.868317335  -5.913876241  -4.548174367
  N    4.011189171 -10.489128901  -5.011441669
  H    4.387848732 -11.404829455  -4.810273694
  H    3.332608766 -10.429083488  -5.774808188
  H    3.208163738  -4.310071732  -5.332702090
  H    6.340667353  -8.284397827  -1.703397225
  H    5.911029031 -10.359767288  -3.037323455
  H    2.509739242  -3.685514896  -0.396294715
  H   -3.739867971  -1.173612219  -5.823749863
  H   -3.395263836  -2.048465728  -1.010224030
  H    0.478992952  -7.665482677   2.219859904
  H    2.523872842  -7.928404159  -5.804926811
  H   -3.001032489   1.677084304  -5.686236705

