%mem=64gb
%nproc=28       
%Chk=snap_51.chk
# opt b3lyp/6-31g(d,p)  scf=(xqc, tight)  pop=min    

tetra snap_51 

2     1 
  O    1.947020457  -4.348695895  -5.697792742
  C    2.760910502  -3.405904280  -6.437258175
  H    3.741187927  -3.857412300  -6.684298108
  H    2.901396202  -2.511988936  -5.792460184
  C    1.969137992  -3.060048125  -7.699883007
  H    2.327492597  -2.098980010  -8.145506412
  O    2.265519512  -4.060742591  -8.733106060
  C    1.069072579  -4.601030155  -9.288038286
  H    1.246722286  -4.704657874 -10.385475327
  C    0.425358903  -3.079810451  -7.531558698
  H    0.094797947  -3.668311770  -6.634166057
  C   -0.092125880  -3.712909578  -8.831328042
  H   -0.332930161  -2.926305452  -9.578170135
  H   -1.042216739  -4.266450588  -8.665037567
  O   -0.060904302  -1.723559086  -7.493507647
  N    0.920010380  -5.989812544  -8.707448928
  C    0.220794645  -7.078228571  -9.264954763
  C    0.113465504  -8.065098845  -8.239021795
  N    0.756639092  -7.567125022  -7.091655864
  C    1.207639503  -6.326439151  -7.372267836
  N   -0.250312482  -7.224965947 -10.542319158
  C   -0.867113467  -8.424552954 -10.792217215
  N   -1.092143729  -9.416269279  -9.800201728
  C   -0.624809405  -9.281346282  -8.434619319
  N   -1.302964506  -8.660574387 -12.069959439
  H   -1.112274907  -7.974050058 -12.798035094
  H   -1.742480848  -9.524045698 -12.352508840
  O   -0.905006003 -10.152806946  -7.638509891
  H    1.728387798  -5.610111076  -6.643750404
  H   -1.620926054 -10.272682492 -10.020340651
  P   -0.287213058  -1.135995972  -5.971494182
  O   -1.629733314  -0.185569286  -6.216481213
  C   -1.422521951   1.230633703  -6.103079478
  H   -2.296563565   1.641702271  -6.650487036
  H   -0.492532374   1.562268279  -6.606014715
  C   -1.435824805   1.622035437  -4.614220885
  H   -0.447285918   1.479122642  -4.100672036
  O   -1.640613957   3.066424083  -4.532928115
  C   -2.960146438   3.378578657  -4.079212481
  H   -2.826022060   4.200401620  -3.328319917
  C   -2.601569116   0.967154152  -3.836617272
  H   -3.053160837   0.098314492  -4.383264415
  C   -3.611489096   2.098399566  -3.561379356
  H   -3.793861117   2.163604645  -2.458528723
  H   -4.597726157   1.873083669  -4.004231607
  O   -2.044459539   0.599875064  -2.560071023
  O    0.844988311  -0.410932931  -5.380360242
  O   -0.890042748  -2.412012422  -5.208658807
  N   -3.654437932   3.958051709  -5.285704940
  C   -3.007772441   4.590000223  -6.343372726
  C   -4.025964404   5.075957212  -7.225864623
  N   -5.285906442   4.744058125  -6.708494183
  C   -5.064212959   4.091793021  -5.565638480
  N   -1.652627140   4.783165805  -6.611823426
  C   -1.351875118   5.506567364  -7.778161903
  N   -2.256973377   5.979017284  -8.621458993
  C   -3.639945636   5.801656448  -8.398935092
  H   -0.275553350   5.686211799  -8.000521460
  N   -4.495706562   6.322387890  -9.292033468
  H   -4.164759096   6.842249350 -10.105741673
  H   -5.504842878   6.231107525  -9.170968668
  H   -5.825326737   3.707954038  -4.890365436
  P   -2.177088377  -0.983242649  -2.121989891
  O   -0.676220008  -1.101747922  -1.506778793
  C   -0.213605332  -2.395728190  -1.052297714
  H    0.099604093  -2.987335395  -1.935162743
  H    0.687603849  -2.128230175  -0.448364626
  C   -1.294925759  -3.063476551  -0.209131347
  H   -1.562710144  -2.479882774   0.706674856
  O   -2.496527590  -3.015012074  -1.052745112
  C   -2.934190540  -4.367653467  -1.416163382
  H   -4.048206338  -4.271608417  -1.402047646
  C   -1.061594388  -4.554264155   0.127305570
  H   -0.151576974  -4.977090641  -0.374950510
  C   -2.346435861  -5.267729161  -0.334118781
  H   -2.146893446  -6.303628889  -0.672525041
  H   -3.040035248  -5.375099022   0.532778651
  O   -1.003016822  -4.701244394   1.548036539
  O   -2.556174529  -1.832703022  -3.304086502
  O   -3.305540699  -0.777622939  -0.974285886
  N   -2.492833562  -4.682000024  -2.802103849
  C   -1.260112297  -5.348053081  -3.098710808
  N   -0.995420287  -5.601570941  -4.457313647
  C   -1.795061082  -5.138384470  -5.557169522
  C   -2.981757408  -4.370076859  -5.169684199
  C   -3.281371431  -4.153425148  -3.865014972
  O   -0.478790428  -5.728552696  -2.237551199
  H   -0.134734740  -6.133247310  -4.668902963
  O   -1.407738253  -5.433066829  -6.673486496
  C   -3.784015055  -3.797230879  -6.286643497
  H   -4.831682633  -3.615766111  -6.013837960
  H   -3.352994510  -2.835981333  -6.617171186
  H   -3.788942799  -4.463840464  -7.164910369
  H   -4.145251204  -3.544285291  -3.561198242
  P    0.498379678  -4.728951510   2.250103703
  O    1.035932608  -6.269450287   2.069610615
  C    1.243808023  -6.875578383   0.786004505
  H    1.002669854  -7.945593279   0.984295685
  H    0.561706724  -6.495680624   0.000528021
  C    2.729713741  -6.716481458   0.435737104
  H    3.341388218  -6.670546678   1.370028213
  O    3.174453329  -7.945626637  -0.204369096
  C    3.515255036  -7.715896973  -1.578755866
  H    4.367340328  -8.410696311  -1.782471287
  C    3.048497717  -5.565768704  -0.556362896
  H    2.140789035  -5.031831794  -0.930685979
  C    3.831272314  -6.227766031  -1.700155911
  H    3.565621530  -5.795160028  -2.690267324
  H    4.922955688  -6.050178823  -1.610407443
  O    3.753056881  -4.519426960   0.101890155
  O    0.562154897  -4.249995396   3.615969937
  O    1.275623457  -3.896456097   1.048460357
  N    2.316206837  -8.203240946  -2.371753595
  C    1.895949016  -7.652777415  -3.648358998
  N    0.916681024  -8.330492580  -4.364552586
  C    0.306481035  -9.451163549  -3.854913471
  C    0.631752534  -9.924640451  -2.534935879
  C    1.642495788  -9.311233367  -1.849155288
  O    2.409210445  -6.629372369  -4.083708662
  N   -0.608722359 -10.078521921  -4.649211006
  H   -1.047384692 -10.944561183  -4.367396008
  H   -0.745722467  -9.806530703  -5.623844013
  H    2.450656547  -4.818380781  -4.979128443
  H    1.971489659  -9.667494133  -0.854195635
  H    0.099512452 -10.770986559  -2.100650991
  H    4.617903577  -4.815290594   0.471969550
  H   -1.516879458  -2.274772204  -4.348730434
  H   -3.619421638  -1.584034833  -0.454093399
  H    2.279978666  -3.799635922   1.073650263
  H    0.826893759  -8.060146712  -6.169790525
  H   -0.946449508   4.411034345  -5.952050159

