%mem=64gb
%nproc=28       
%Chk=snap_197.chk
# opt b3lyp/6-31g(d,p)  scf=(xqc, tight)  pop=min    

tetra snap_197 

2     1 
  O    2.159888836  -1.868650014  -4.333812290
  C    2.186011763  -3.096073579  -5.049962538
  H    1.802364419  -3.918885533  -4.417225587
  H    3.270770012  -3.256570888  -5.242361581
  C    1.432036837  -2.954942294  -6.377334600
  H    1.415671645  -1.888459986  -6.714024417
  O    2.235368798  -3.629676537  -7.399416442
  C    1.487906553  -4.610571912  -8.090567409
  H    1.723363778  -4.468526459  -9.178911199
  C    0.024957580  -3.598863450  -6.431120953
  H   -0.242881153  -4.176520012  -5.511759286
  C    0.021579400  -4.488573330  -7.683285975
  H   -0.577828020  -3.992473046  -8.484348060
  H   -0.487107812  -5.455741782  -7.515326306
  O   -0.934168118  -2.547783973  -6.712722681
  N    2.063661182  -5.953428936  -7.694971345
  C    2.748633998  -6.804632278  -8.582973070
  C    3.197205949  -7.923244101  -7.820171424
  N    2.812460960  -7.715418001  -6.484157464
  C    2.138187141  -6.542016016  -6.414880518
  N    2.939936471  -6.626243150  -9.924690879
  C    3.646165242  -7.626883838 -10.545532876
  N    4.113268596  -8.780360699  -9.866452167
  C    3.899049770  -9.012556230  -8.448147788
  N    3.882695482  -7.497292585 -11.887192737
  H    3.561103885  -6.661450309 -12.374695686
  H    4.413758170  -8.167591787 -12.424171019
  O    4.302712535 -10.059764658  -7.993463800
  H    1.673630259  -6.102268818  -5.503207559
  H    4.628307779  -9.516746128 -10.372039676
  P   -1.753002677  -2.013427219  -5.389418633
  O   -2.766223805  -0.901909917  -6.046477317
  C   -2.129047397   0.286719430  -6.575334398
  H   -2.983391037   0.806778351  -7.058319361
  H   -1.397372209   0.018844644  -7.364464653
  C   -1.509035236   1.137822881  -5.456530756
  H   -0.433216233   0.898341560  -5.250446587
  O   -1.470659995   2.506488092  -5.944178003
  C   -2.299519988   3.364614798  -5.158029308
  H   -1.687738702   4.291749634  -4.995576176
  C   -2.345931350   1.143887134  -4.150893149
  H   -3.260506884   0.509623750  -4.233453805
  C   -2.683422706   2.620594497  -3.884786998
  H   -2.060173441   2.973878727  -3.021526865
  H   -3.718100926   2.774376680  -3.527320040
  O   -1.486959003   0.722767267  -3.082392453
  O   -0.730755694  -1.495114022  -4.394924824
  O   -2.624412066  -3.324164219  -5.076045679
  N   -3.437226563   3.753946312  -6.056040594
  C   -4.718695281   3.237248940  -6.234156818
  C   -5.277870214   3.908303302  -7.375139961
  N   -4.336479091   4.799531193  -7.911233373
  C   -3.254801901   4.696928941  -7.145417050
  N   -5.473461257   2.297371180  -5.538419100
  C   -6.798848808   2.112346317  -5.967675144
  N   -7.351191417   2.705173496  -7.015585499
  C   -6.624268363   3.642207001  -7.777532231
  H   -7.414347335   1.398993862  -5.374739299
  N   -7.235632859   4.225999105  -8.822472725
  H   -8.201787311   4.008295741  -9.062989478
  H   -6.752876937   4.920204652  -9.392945994
  H   -2.317890146   5.237279851  -7.273169638
  P   -1.768200180  -0.805920954  -2.510994364
  O   -0.320786040  -1.295071543  -1.954624115
  C   -0.031641370  -2.704922790  -2.043607429
  H    0.182337755  -2.970977405  -3.099432455
  H    0.919388885  -2.764978502  -1.467061740
  C   -1.144871568  -3.539240210  -1.401577364
  H   -0.802765607  -4.006583899  -0.445865808
  O   -2.197536960  -2.591389763  -1.050281353
  C   -3.481997732  -3.326297084  -0.951244636
  H   -3.630896796  -3.487949492   0.146564632
  C   -1.866049571  -4.577861545  -2.302463150
  H   -1.852443263  -4.340746958  -3.392958986
  C   -3.292525566  -4.627228303  -1.733843392
  H   -4.053219603  -4.793107882  -2.532552971
  H   -3.407348521  -5.522800966  -1.079557662
  O   -1.327350089  -5.905734877  -2.091445167
  O   -2.783725769  -1.535631969  -3.388945045
  O   -2.420940669  -0.283775798  -1.086137296
  N   -4.519084346  -2.366728054  -1.421005785
  C   -4.861174864  -2.277479079  -2.807061297
  N   -5.367854221  -1.032458031  -3.278226117
  C   -5.407584754   0.152016854  -2.491843424
  C   -5.217755632  -0.047921167  -1.055729713
  C   -4.737533427  -1.229712466  -0.587107105
  O   -4.862728034  -3.244876775  -3.558966783
  H   -5.526753545  -0.972819285  -4.292882512
  O   -5.575837892   1.214112117  -3.088668576
  C   -5.480277259   1.111105294  -0.158917992
  H   -4.542585360   1.495042705   0.277319838
  H   -5.945451144   1.955871101  -0.693986119
  H   -6.155603779   0.854287403   0.671940269
  H   -4.502150701  -1.376214586   0.476200741
  P    0.170873321  -6.164481349  -2.700616506
  O    0.994888627  -5.365459259  -1.513338402
  C    2.396453333  -5.654999140  -1.343885269
  H    2.878698369  -6.014324568  -2.279234168
  H    2.822332415  -4.656087299  -1.094827931
  C    2.548085433  -6.621343627  -0.168273855
  H    1.817079032  -6.386928775   0.643571670
  O    2.167254311  -7.983408688  -0.543057464
  C    3.314993328  -8.872457958  -0.558515530
  H    3.062625174  -9.630570242   0.227529412
  C    4.017300519  -6.702475281   0.330855653
  H    4.642452165  -5.826913705   0.032173287
  C    4.548930801  -8.033539381  -0.229380993
  H    5.184785973  -7.851015534  -1.123518382
  H    5.223094794  -8.534239439   0.494933345
  O    4.069737164  -6.627090058   1.740700988
  O    0.466768876  -5.622842749  -4.053362656
  O    0.365326622  -7.750748022  -2.535019346
  N    3.342968656  -9.543953186  -1.887937270
  C    3.490019141  -8.811699601  -3.147911388
  N    3.499110531  -9.533319210  -4.328473990
  C    3.490416982 -10.904083364  -4.327273566
  C    3.356635944 -11.636886152  -3.086688139
  C    3.271458811 -10.945468797  -1.915622364
  O    3.576058425  -7.596171981  -3.131126797
  N    3.588982066 -11.525432689  -5.532858383
  H    3.639166452 -12.530471166  -5.614161840
  H    3.759674277 -10.985438622  -6.387316088
  H    1.227747650  -1.594580545  -4.105830473
  H    3.152590887 -11.464498099  -0.951708980
  H    3.318883382 -12.727271480  -3.096804125
  H    3.619187125  -7.380871211   2.182589893
  H   -3.506893693  -3.192363665  -4.532637536
  H   -1.854211898  -0.420506179  -0.273634114
  H    1.113403009  -8.084838740  -1.889297592
  H    3.072865739  -8.362571765  -5.689171960
  H   -5.143381224   1.844478803  -4.647177019

