%mem=64gb
%nproc=28       
%Chk=snap_45.chk
# opt b3lyp/6-31g(d,p)  scf=(xqc, tight)  pop=min    

tetra snap_45 

2     1 
  O    2.005053742  -4.215282587  -6.221562096
  C    2.514192179  -3.302278089  -7.205146635
  H    3.507322729  -3.742679796  -7.451989146
  H    2.671320001  -2.311254747  -6.729545283
  C    1.640656278  -3.203688787  -8.456457902
  H    1.933436135  -2.322724416  -9.080453936
  O    1.940227689  -4.354540844  -9.318020323
  C    0.746839299  -5.015864476  -9.718240373
  H    0.888423215  -5.310208424 -10.787172010
  C    0.109634301  -3.263699459  -8.215297375
  H   -0.159093260  -3.777761191  -7.250231524
  C   -0.427629560  -4.082658916  -9.394392187
  H   -0.685219859  -3.426579459 -10.252555166
  H   -1.364268318  -4.617130638  -9.133336831
  O   -0.472678443  -1.940636019  -8.261974176
  N    0.670281499  -6.286888851  -8.900121739
  C    0.067328205  -7.492150478  -9.304178174
  C    0.124655666  -8.377287436  -8.187113526
  N    0.748593282  -7.692938329  -7.126375826
  C    1.065361988  -6.450072293  -7.555831846
  N   -0.460406284  -7.799926378 -10.531689699
  C   -0.947112782  -9.076128123 -10.643758376
  N   -0.928339472 -10.015776381  -9.580745658
  C   -0.393323059  -9.715843613  -8.263115755
  N   -1.501044820  -9.445582056 -11.843765960
  H   -1.482220350  -8.793133859 -12.625601345
  H   -1.817220968 -10.384138056 -12.037689991
  O   -0.443818788 -10.592368753  -7.427842261
  H    1.598547053  -5.636347668  -6.947489086
  H   -1.309928052 -10.964000122  -9.707863572
  P   -0.294002512  -1.130751163  -6.836173835
  O   -1.747135017  -0.345519705  -6.652475943
  C   -1.645553596   1.085526604  -6.512038457
  H   -2.693973333   1.415847417  -6.663700295
  H   -1.011145073   1.535651451  -7.302648337
  C   -1.118199577   1.416950507  -5.104767683
  H   -0.018577941   1.208603549  -4.979192285
  O   -1.193655079   2.862536301  -4.919912537
  C   -2.208735607   3.211130040  -3.977381048
  H   -1.754707433   4.016400058  -3.342145180
  C   -1.971214382   0.772365495  -3.984478032
  H   -2.711417249   0.034994956  -4.376258928
  C   -2.631657323   1.948546583  -3.234908325
  H   -2.247707605   1.974475684  -2.184420931
  H   -3.720682242   1.804129453  -3.130186560
  O   -1.004484059   0.155000854  -3.118103060
  O    0.857195573  -0.224431836  -6.723566761
  O   -0.412491543  -2.358361747  -5.801303937
  N   -3.294218491   3.841942963  -4.809798381
  C   -3.038388222   4.671916984  -5.899451542
  C   -4.300148848   5.177760221  -6.347363385
  N   -5.321230609   4.652429741  -5.542804075
  C   -4.726142893   3.871356085  -4.638834510
  N   -1.842160257   5.030813549  -6.519330502
  C   -1.947992744   5.951495541  -7.576897870
  N   -3.089287636   6.456984673  -8.017921538
  C   -4.328906516   6.102316115  -7.442285843
  H   -1.000258576   6.274507718  -8.065606559
  N   -5.442609431   6.651565682  -7.950376895
  H   -5.403885736   7.313747219  -8.726760141
  H   -6.361798765   6.438099882  -7.561718414
  H   -5.224261602   3.318665865  -3.847209903
  P   -1.385323904  -1.291139347  -2.416497056
  O   -0.646407758  -1.054197056  -0.993341037
  C   -0.177320567  -2.274089147  -0.348828373
  H    0.523329918  -2.831200651  -1.012665871
  H    0.401296035  -1.874640260   0.512501851
  C   -1.422246720  -3.049210645   0.082056239
  H   -1.951182135  -2.574816198   0.942169778
  O   -2.347975777  -2.914996874  -1.053337869
  C   -2.919236631  -4.227638894  -1.432939921
  H   -4.018937142  -4.022150914  -1.431636001
  C   -1.233058871  -4.564639323   0.297472499
  H   -0.275376804  -4.951037232  -0.165158822
  C   -2.466239870  -5.210191698  -0.356653151
  H   -2.229020282  -6.223072869  -0.749626876
  H   -3.258250241  -5.376831906   0.407745803
  O   -1.303285167  -4.791581247   1.716445249
  O   -0.935642081  -2.400041043  -3.311093164
  O   -3.002093993  -1.034082087  -2.280397057
  N   -2.478885128  -4.554652321  -2.805066279
  C   -1.183505869  -5.131547987  -3.056905148
  N   -0.866753428  -5.398254936  -4.404208126
  C   -1.669761356  -5.009744033  -5.514969386
  C   -2.880850568  -4.239542492  -5.180422896
  C   -3.231181195  -4.023617540  -3.889771752
  O   -0.435026449  -5.465957322  -2.157240033
  H    0.044203808  -5.896493951  -4.576934746
  O   -1.280621106  -5.343771348  -6.623191968
  C   -3.648357322  -3.694277270  -6.332873575
  H   -3.794369414  -4.461669376  -7.112215417
  H   -4.642448396  -3.318541406  -6.058114148
  H   -3.100727556  -2.864802464  -6.812337785
  H   -4.124778528  -3.447591243  -3.616952354
  P   -0.114513182  -5.698902511   2.401270905
  O    0.319230007  -6.559180417   1.072957390
  C    1.573045737  -7.273877815   1.030301556
  H    1.866114238  -7.659905721   2.023774527
  H    1.318931882  -8.133745894   0.370998046
  C    2.659037396  -6.392654446   0.386628800
  H    3.377129611  -5.991076878   1.137076841
  O    3.473649699  -7.280128946  -0.436279537
  C    3.455652679  -6.874223192  -1.819066005
  H    4.504166751  -7.029083211  -2.171572788
  C    2.125615751  -5.291324568  -0.566106087
  H    1.021053780  -5.398279402  -0.754810515
  C    2.946751488  -5.438688164  -1.849960675
  H    2.355232601  -5.182112865  -2.759623402
  H    3.789114045  -4.711155287  -1.850903231
  O    2.353146587  -3.970425628  -0.069318560
  O   -0.420183849  -6.342238409   3.666481168
  O    1.138017242  -4.604636090   2.456993348
  N    2.570941651  -7.882226057  -2.529630706
  C    1.848092192  -7.587017907  -3.753736327
  N    1.186895710  -8.617438958  -4.406604560
  C    1.167935904  -9.886014999  -3.884807228
  C    1.829106141 -10.173355843  -2.636157463
  C    2.528368028  -9.177334307  -2.011485933
  O    1.834813826  -6.454354802  -4.223279118
  N    0.510972869 -10.840284260  -4.602848352
  H    0.479658080 -11.802795017  -4.304005873
  H    0.086717366 -10.625384374  -5.508545413
  H    1.127854644  -3.923815076  -5.858602775
  H    3.087851175  -9.356421761  -1.074103100
  H    1.787338655 -11.173548650  -2.208269253
  H    2.160325731  -3.926148435   0.901816212
  H   -0.614843777  -2.178678960  -4.754222100
  H   -3.464143671  -1.397229411  -1.461623349
  H    1.450326862  -4.312815735   3.354960368
  H    0.890219467  -8.088783999  -6.160528657
  H   -0.956913736   4.595014583  -6.212007289

