%mem=64gb
%nproc=28       
%Chk=snap_33.chk
# opt b3lyp/6-31g(d,p)  scf=(xqc, tight)  pop=min    

tetra snap_33 

2     1 
  O    2.658074494  -4.271062228  -8.969259432
  C    2.260895950  -2.923706212  -8.689325975
  H    3.040909132  -2.221205278  -9.042539288
  H    2.230745636  -2.874950519  -7.582009606
  C    0.905176669  -2.633788534  -9.347670203
  H    0.814262874  -1.568106955  -9.668187580
  O    0.874925026  -3.388735858 -10.604148971
  C   -0.275955595  -4.217782875 -10.685034940
  H   -0.650648081  -4.116611203 -11.736964337
  C   -0.333538220  -3.095012442  -8.536761233
  H   -0.071669764  -3.751832375  -7.670874623
  C   -1.225237300  -3.821914601  -9.556129903
  H   -2.024812807  -3.133536587  -9.915118326
  H   -1.767707431  -4.676542897  -9.089642048
  O   -1.102912629  -1.959940420  -8.098151325
  N    0.186604313  -5.646909671 -10.511512114
  C   -0.014424286  -6.693522737 -11.440539558
  C    0.540474457  -7.867853038 -10.858973295
  N    1.071324527  -7.519780709  -9.602439571
  C    0.857578659  -6.193013596  -9.403517775
  N   -0.624081722  -6.618139459 -12.658616878
  C   -0.671313739  -7.809976351 -13.351265348
  N   -0.150681615  -9.020817376 -12.845024295
  C    0.505812312  -9.139535281 -11.543471772
  N   -1.266308162  -7.794895211 -14.583839188
  H   -1.623882262  -6.918206007 -14.959959672
  H   -1.326491897  -8.609138132 -15.178861951
  O    0.915356478 -10.219715569 -11.212640736
  H    1.174478845  -5.597479850  -8.516376741
  H   -0.213991730  -9.892608191 -13.393197700
  P   -0.577363877  -1.292298419  -6.680329217
  O   -1.924504993  -0.389622055  -6.339215822
  C   -1.677579491   1.015603855  -6.126694155
  H   -2.579644430   1.499684897  -6.554398760
  H   -0.774002804   1.385603802  -6.657483171
  C   -1.577790114   1.211261969  -4.606110117
  H   -0.562910524   1.001687608  -4.186522558
  O   -1.762101592   2.628027746  -4.308151268
  C   -3.024516246   2.865161548  -3.670429189
  H   -2.783006149   3.452876765  -2.746235514
  C   -2.696203847   0.448679994  -3.852971650
  H   -3.145001561  -0.376901395  -4.463313852
  C   -3.718736432   1.524776281  -3.439579923
  H   -3.983352506   1.384365944  -2.363067981
  H   -4.665795900   1.404261245  -3.997185717
  O   -2.086984883  -0.016446294  -2.642270522
  O    0.671658716  -0.523541678  -6.771362419
  O   -0.591496380  -2.533640424  -5.668598907
  N   -3.760495147   3.772796392  -4.617826040
  C   -3.150139310   4.641941485  -5.516310469
  C   -4.188499610   5.433980535  -6.104160538
  N   -5.424859970   5.052690018  -5.564113040
  C   -5.169582827   4.081510350  -4.685891546
  N   -1.811688859   4.816483014  -5.864635024
  C   -1.544239709   5.829966920  -6.799881777
  N   -2.468613960   6.589223439  -7.368198842
  C   -3.837877193   6.445487485  -7.055967905
  H   -0.478065552   5.993946435  -7.075357112
  N   -4.716478238   7.259761248  -7.661331143
  H   -4.414816833   7.973365287  -8.325908751
  H   -5.714719050   7.199118957  -7.458188087
  H   -5.900235134   3.565678977  -4.067944307
  P   -2.038869845  -1.650712845  -2.384332570
  O   -0.569252572  -1.562403336  -1.702874367
  C    0.052502604  -2.715364581  -1.091921366
  H    0.646186719  -3.223390208  -1.883754517
  H    0.745781694  -2.247851637  -0.354014528
  C   -0.979488172  -3.615191336  -0.421473065
  H   -1.441737515  -3.154406279   0.488957667
  O   -2.087121698  -3.700723399  -1.383797321
  C   -2.226692353  -5.065127894  -1.903775637
  H   -3.336244662  -5.188902541  -1.962156005
  C   -0.508255326  -5.068688885  -0.164501081
  H    0.543878978  -5.272684649  -0.494481412
  C   -1.523700441  -5.954366567  -0.895580189
  H   -1.039163219  -6.861585178  -1.353086064
  H   -2.226288474  -6.415581457  -0.158263758
  O   -0.657029778  -5.391575464   1.236949824
  O   -2.261645064  -2.410709611  -3.660420556
  O   -3.263481868  -1.674036935  -1.313882824
  N   -1.653253786  -5.130401570  -3.277638815
  C   -0.252095779  -5.316819202  -3.511498264
  N    0.123552868  -5.579106764  -4.852182980
  C   -0.758898463  -5.531179499  -5.969094707
  C   -2.137485766  -5.153585163  -5.657514097
  C   -2.531308712  -4.948182753  -4.372794925
  O    0.591485675  -5.263023118  -2.636903485
  H    1.128107360  -5.755743104  -5.016632966
  O   -0.277141520  -5.783187795  -7.068278833
  C   -3.072645925  -4.971966500  -6.802437724
  H   -3.454256118  -3.939807495  -6.852191963
  H   -2.580348819  -5.182030863  -7.770712369
  H   -3.936721855  -5.650281685  -6.734063443
  H   -3.554628365  -4.630818607  -4.124635925
  P    0.520543954  -4.844527243   2.237270500
  O    1.802374012  -4.770975511   1.212389576
  C    3.109980592  -5.044772477   1.791616183
  H    3.592554014  -4.047945750   1.878007564
  H    3.039222542  -5.523814869   2.792636245
  C    3.872642830  -5.942923980   0.813124729
  H    4.972996129  -5.806954155   0.954354388
  O    3.673078440  -7.335576493   1.163112359
  C    2.805761681  -7.997213739   0.219593624
  H    3.273815343  -9.001518559   0.075006250
  C    3.448222130  -5.794550226  -0.672760509
  H    2.814211073  -4.897817190  -0.858793058
  C    2.761002690  -7.119769119  -1.032666044
  H    1.727742482  -6.946887107  -1.416175211
  H    3.259978970  -7.616440873  -1.886615116
  O    4.580148969  -5.528498082  -1.487166680
  O    0.680796602  -5.482851082   3.540054305
  O    0.108039555  -3.240740228   2.232992917
  N    1.486799900  -8.182282084   0.920512366
  C    0.233769379  -8.397257144   0.182788271
  N   -0.923453738  -8.601506926   0.906231224
  C   -0.894475069  -8.641784724   2.270033033
  C    0.333693444  -8.482418150   3.006162312
  C    1.491749573  -8.268187802   2.313165832
  O    0.275592436  -8.336068352  -1.038283548
  N   -2.095419137  -8.820529464   2.909311772
  H   -2.150505332  -8.919001857   3.908935827
  H   -2.935962233  -8.998938478   2.378091627
  H    2.922797589  -4.339290922  -9.922191917
  H    2.460757644  -8.141227650   2.824295600
  H    0.335661960  -8.488264603   4.094448234
  H    5.231164792  -6.263510028  -1.476046401
  H   -1.263360791  -2.567261199  -4.830688447
  H   -3.520694930  -2.547280337  -0.882237859
  H    0.083737640  -2.760195361   3.098653945
  H    1.518437536  -8.180559928  -8.972620676
  H   -1.090684201   4.223891843  -5.417871246

