%mem=64gb
%nproc=28       
%Chk=snap_105.chk
# opt b3lyp/6-31g(d,p)  scf=(xqc, tight)  pop=min    

tetra snap_105 

2     1 
  O    3.526086921  -4.683894590  -6.384935568
  C    3.580179936  -3.258974228  -6.393391965
  H    4.530421233  -3.057217525  -6.936060566
  H    3.672088744  -2.885074059  -5.353490475
  C    2.393226937  -2.591366878  -7.097123882
  H    2.560794775  -1.488752928  -7.204636039
  O    2.331316405  -3.061672663  -8.483928236
  C    1.119920320  -3.757991445  -8.728675980
  H    0.833608445  -3.525479114  -9.783888919
  C    1.003139696  -2.876421863  -6.477203325
  H    1.047099248  -3.609324268  -5.632214743
  C    0.126880099  -3.376288731  -7.635586102
  H   -0.565310724  -2.580807996  -7.982855641
  H   -0.544714068  -4.205131681  -7.319823067
  O    0.514472894  -1.586500577  -6.049782008
  N    1.470537744  -5.234344895  -8.675761145
  C    0.580368839  -6.316447092  -8.516281386
  C    1.373241508  -7.498877184  -8.495127874
  N    2.723291427  -7.113340711  -8.564401347
  C    2.773622227  -5.753792472  -8.653633776
  N   -0.786922059  -6.277122824  -8.426397578
  C   -1.386914532  -7.492937635  -8.271846209
  N   -0.693289905  -8.717822981  -8.365516287
  C    0.763736582  -8.807649545  -8.391765202
  N   -2.735501623  -7.522995190  -7.927036293
  H   -3.183579825  -6.592466283  -7.798320470
  H   -3.346550886  -8.204710842  -8.363747618
  O    1.262993130  -9.901458600  -8.348456646
  H    3.674143490  -5.123152770  -8.684021970
  H   -1.193559628  -9.613893540  -8.298798645
  P   -0.376677864  -1.624327662  -4.654649655
  O   -0.563602869   0.020731629  -4.601926631
  C    0.155794201   0.801013349  -3.623585830
  H    0.835255918   1.452680902  -4.223991254
  H    0.754269195   0.162511690  -2.940485152
  C   -0.864582326   1.647172888  -2.861720345
  H   -0.492245095   1.885606450  -1.831787980
  O   -0.954028444   2.936738494  -3.552155716
  C   -2.295848027   3.441363810  -3.513070066
  H   -2.232413183   4.449189033  -3.029038187
  C   -2.325559741   1.122940700  -2.815402319
  H   -2.588423163   0.483197839  -3.695454846
  C   -3.164901366   2.408516255  -2.785332033
  H   -3.360072388   2.705837361  -1.726516450
  H   -4.173088697   2.276812650  -3.217503083
  O   -2.531200157   0.431846911  -1.580987814
  O    0.322122749  -2.344354388  -3.576222576
  O   -1.793304976  -2.024540929  -5.358151284
  N   -2.731050536   3.649490224  -4.929981908
  C   -2.699336649   2.779106388  -6.015865235
  C   -3.292154818   3.472233449  -7.123658653
  N   -3.670482383   4.761651906  -6.720706071
  C   -3.334108397   4.866389175  -5.437518370
  N   -2.243071308   1.474444471  -6.161571703
  C   -2.356407053   0.902040105  -7.435640358
  N   -2.902893911   1.499912649  -8.486312145
  C   -3.400080675   2.816457097  -8.391483352
  H   -1.972498088  -0.138225560  -7.546294892
  N   -3.950668164   3.366969851  -9.487388441
  H   -4.001178767   2.857986104 -10.369210720
  H   -4.320992939   4.317849631  -9.467863420
  H   -3.471926256   5.740502597  -4.803899681
  P   -2.361167662  -1.219529871  -1.690252383
  O   -1.172669648  -1.349867204  -0.591997636
  C   -0.387622216  -2.578682646  -0.648704168
  H    0.014877544  -2.741575111  -1.678214122
  H    0.453859942  -2.361599031   0.043899630
  C   -1.309672505  -3.678862125  -0.140905536
  H   -1.564646899  -3.556598808   0.940182453
  O   -2.567949470  -3.400889595  -0.848286436
  C   -3.125291333  -4.616035705  -1.437707065
  H   -4.182654092  -4.613572290  -1.068664265
  C   -0.942087498  -5.142576174  -0.468935011
  H   -0.128181524  -5.247892030  -1.238641693
  C   -2.273643487  -5.772568059  -0.916659399
  H   -2.112060902  -6.594212296  -1.643825434
  H   -2.757001335  -6.265824830  -0.038791504
  O   -0.629111195  -5.823352589   0.763307321
  O   -2.069419817  -1.599076525  -3.116144204
  O   -3.865167789  -1.586211661  -1.189887039
  N   -3.133530814  -4.464412462  -2.916992730
  C   -2.086768396  -5.009785523  -3.731623401
  N   -2.380372082  -5.148598479  -5.104798260
  C   -3.578421132  -4.676106699  -5.736586689
  C   -4.446152530  -3.865188749  -4.861647733
  C   -4.234041940  -3.806074549  -3.524100109
  O   -1.027579628  -5.382001754  -3.260104344
  H   -1.701287405  -5.703470000  -5.666499727
  O   -3.761880868  -4.981422456  -6.897077533
  C   -5.568340035  -3.165461481  -5.542420556
  H   -5.195962225  -2.446013629  -6.289059628
  H   -6.203107036  -3.881930175  -6.097257809
  H   -6.230210937  -2.622221635  -4.855907056
  H   -4.891385720  -3.238526144  -2.845040634
  P    0.944513575  -5.925843758   1.200955117
  O    1.575311352  -6.463265001  -0.220642948
  C    3.005453021  -6.726039194  -0.235966032
  H    3.492151915  -6.535212832   0.741044721
  H    3.080507013  -7.815285485  -0.459806765
  C    3.641125836  -5.896993735  -1.355492818
  H    4.751773858  -5.866958589  -1.229031041
  O    3.479313559  -6.603792987  -2.622795598
  C    2.558309106  -5.914326348  -3.481451505
  H    3.133851407  -5.694467127  -4.422348774
  C    3.026972759  -4.487559529  -1.571442361
  H    2.576601322  -4.040230288  -0.655053902
  C    2.040940717  -4.687357165  -2.729027986
  H    0.998469112  -4.849417720  -2.356216815
  H    1.945887965  -3.778332363  -3.358601476
  O    4.038161770  -3.543367001  -1.889022154
  O    1.259225529  -6.602149239   2.447791492
  O    1.394653523  -4.326879628   1.103978825
  N    1.468468469  -6.881698999  -3.841755977
  C    0.738832405  -6.654290879  -5.079888991
  N   -0.276420692  -7.514545817  -5.430414017
  C   -0.653989758  -8.509284760  -4.561297298
  C    0.019711308  -8.717403518  -3.313580144
  C    1.062523532  -7.887766587  -2.976790921
  O    1.068649648  -5.690955967  -5.774903794
  N   -1.747285308  -9.245608473  -4.946529868
  H   -2.017360860 -10.086059283  -4.458217209
  H   -2.136914691  -9.096467759  -5.865970170
  H    2.698038593  -5.021655167  -5.921741257
  H    1.616170896  -7.988330023  -2.026844216
  H   -0.281749043  -9.521090524  -2.643837825
  H    4.543981379  -3.794255269  -2.692334314
  H   -2.540417853  -2.286462941  -4.701232536
  H   -3.975358861  -1.943552631  -0.254454359
  H    1.758928753  -3.900255709   1.925033387
  H    3.502934254  -7.765007563  -8.538611209
  H   -1.729671052   0.983528184  -5.389125437

