%mem=64gb
%nproc=28       
%Chk=snap_65.chk
# opt b3lyp/6-31g(d,p)  scf=(xqc, tight)  pop=min    

tetra snap_65 

2     1 
  O    1.251974314  -6.543450545  -7.029628892
  C    2.153121280  -5.478517599  -7.344975296
  H    2.529138122  -5.739476465  -8.358683387
  H    2.989622134  -5.464623397  -6.622890858
  C    1.438589800  -4.118368245  -7.397546995
  H    2.145720213  -3.264053305  -7.272401783
  O    0.944453636  -3.945907301  -8.767033227
  C   -0.464098507  -4.083212937  -8.815768037
  H   -0.795052650  -3.437354427  -9.668158520
  C    0.206062480  -3.978878404  -6.473035308
  H    0.077759256  -4.864021148  -5.808096220
  C   -0.989587450  -3.743356763  -7.423558268
  H   -1.314250292  -2.679491345  -7.392731146
  H   -1.887721905  -4.314333259  -7.107702889
  O    0.487887499  -2.830244846  -5.643038014
  N   -0.782720922  -5.511589521  -9.200010309
  C   -0.802425793  -6.000453131 -10.528830279
  C   -0.889088017  -7.418030543 -10.447183016
  N   -0.906571616  -7.770902218  -9.083432243
  C   -0.833552908  -6.631625080  -8.347831830
  N   -0.795795268  -5.272068484 -11.683419382
  C   -0.872816250  -6.022322170 -12.835943353
  N   -0.931521849  -7.432210736 -12.843753194
  C   -0.935613010  -8.245637072 -11.627776743
  N   -0.914969374  -5.339278788 -14.023863615
  H   -0.843773627  -4.324154980 -14.019108732
  H   -0.904000354  -5.796869332 -14.923523441
  O   -0.980454704  -9.440875452 -11.750633827
  H   -0.837626543  -6.578297142  -7.236763942
  H   -0.979184101  -7.955628833 -13.731105494
  P   -0.614357390  -2.449814651  -4.468529380
  O   -1.214375125  -1.038832281  -5.114013901
  C   -0.784056616   0.181666092  -4.497296920
  H   -0.664447697   0.865701028  -5.362693817
  H    0.191999280   0.076995402  -3.979621516
  C   -1.874615930   0.690746704  -3.535819422
  H   -1.589582867   0.582561341  -2.459202878
  O   -1.936709479   2.146717586  -3.693986894
  C   -3.176992663   2.553667291  -4.272006910
  H   -3.465665554   3.487181475  -3.723141952
  C   -3.295929745   0.147689520  -3.844306143
  H   -3.300588916  -0.615558733  -4.662671316
  C   -4.149810028   1.386151264  -4.175658218
  H   -4.882897711   1.544312138  -3.340452669
  H   -4.782749749   1.223313203  -5.064034836
  O   -3.932441103  -0.395686125  -2.675692268
  O    0.063145905  -2.293103744  -3.163313555
  O   -1.752311695  -3.518897576  -4.920551211
  N   -2.848205500   2.934125782  -5.693883902
  C   -1.638663284   3.478038781  -6.113595511
  C   -1.766310590   3.753530305  -7.513654665
  N   -3.044504239   3.374762367  -7.946501354
  C   -3.676357698   2.892847605  -6.874373544
  N   -0.460556954   3.754809228  -5.420058367
  C    0.574209244   4.341752188  -6.169698720
  N    0.499307458   4.621323474  -7.461562334
  C   -0.667633149   4.353272034  -8.209516366
  H    1.518115436   4.581440683  -5.629362242
  N   -0.673675517   4.670916458  -9.513660056
  H    0.127668781   5.121732739  -9.956958496
  H   -1.494720335   4.494946704 -10.093696324
  H   -4.696352411   2.518553578  -6.849523293
  P   -3.245680133  -1.751010299  -2.014051723
  O   -2.424297780  -0.990254220  -0.836064138
  C   -1.250347777  -1.708259972  -0.352330901
  H   -0.558203982  -1.928901357  -1.197490912
  H   -0.775609639  -0.964785556   0.328232876
  C   -1.753434099  -2.940256890   0.385725376
  H   -2.224661910  -2.693380654   1.366087433
  O   -2.853452452  -3.453641153  -0.454701139
  C   -2.811382656  -4.922779474  -0.511605222
  H   -3.841736654  -5.218433318  -0.192959735
  C   -0.763401441  -4.124871013   0.500256237
  H   -0.015138622  -4.128675839  -0.336695230
  C   -1.701944335  -5.347511654   0.444395926
  H   -1.165658414  -6.272463987   0.151667439
  H   -2.092154956  -5.563377032   1.465829560
  O   -0.145794162  -4.162482850   1.777668458
  O   -2.444782725  -2.463049486  -3.059931126
  O   -4.621080679  -2.461033813  -1.531603695
  N   -2.612021400  -5.336981422  -1.929483185
  C   -1.325163550  -5.702871163  -2.451375099
  N   -1.296897939  -6.161972270  -3.785543407
  C   -2.407253303  -6.170140737  -4.680174022
  C   -3.672192148  -5.706666384  -4.086216391
  C   -3.740590375  -5.326383610  -2.784241568
  O   -0.303870142  -5.664015804  -1.787475434
  H   -0.364205986  -6.495054443  -4.132942196
  O   -2.206351615  -6.523412368  -5.831001525
  C   -4.861841813  -5.675334516  -4.980979540
  H   -5.382032430  -4.707032643  -4.951196048
  H   -4.584803159  -5.862028883  -6.032920042
  H   -5.594921425  -6.453629946  -4.710754765
  H   -4.684865314  -4.978139443  -2.334269656
  P    1.225586987  -3.247257758   2.028826604
  O    2.492772762  -4.236543124   1.704222416
  C    2.526698260  -5.151769380   0.600373924
  H    3.181631895  -5.967709844   0.993221322
  H    1.542462670  -5.587557378   0.364170794
  C    3.216019062  -4.447055520  -0.573919385
  H    3.939570156  -3.675385666  -0.205997353
  O    4.059175355  -5.442944327  -1.228759527
  C    3.748279475  -5.550088512  -2.626323668
  H    4.736746799  -5.650040655  -3.135732189
  C    2.285161950  -3.883200137  -1.670826782
  H    1.219665724  -4.216475964  -1.584292620
  C    2.936621944  -4.311640800  -2.991402749
  H    2.190169796  -4.464959474  -3.801566778
  H    3.603869143  -3.507744284  -3.368393484
  O    2.327678462  -2.449885556  -1.529016650
  O    1.288467056  -2.635261823   3.341426185
  O    1.078237008  -2.271681820   0.718458826
  N    3.020257399  -6.872472056  -2.768682754
  C    1.928184326  -7.101302234  -3.683220983
  N    1.324461369  -8.336967505  -3.751540629
  C    1.753491507  -9.353913145  -2.937127080
  C    2.846533659  -9.155757257  -2.017335570
  C    3.440593942  -7.925711893  -1.949522594
  O    1.536358798  -6.174427668  -4.411062499
  N    1.088209496 -10.544080697  -3.024512589
  H    1.370171587 -11.354142848  -2.493690094
  H    0.334101199 -10.665744028  -3.688878980
  H    1.243480428  -6.719098785  -6.037516864
  H    4.270773520  -7.712290141  -1.252029609
  H    3.194045249  -9.974891373  -1.387632855
  H    1.631312703  -2.056499745  -2.147062946
  H   -2.546990231  -3.631834766  -4.256609810
  H   -4.774136186  -2.534037472  -0.534982611
  H    1.850096455  -2.154655970   0.040686349
  H   -0.950380064  -8.727626701  -8.746623871
  H   -0.394025398   3.521080117  -4.416496281

