%mem=64gb
%nproc=28       
%Chk=snap_190.chk
# opt b3lyp/6-31g(d,p)  scf=(xqc, tight)  pop=min    

tetra snap_190 

2     1 
  O    2.771724490  -4.239702773  -4.807621388
  C    2.875168010  -3.100051207  -5.663198702
  H    3.872128918  -3.241471707  -6.136179121
  H    2.888546425  -2.188278628  -5.032166247
  C    1.778589245  -3.006787033  -6.729059711
  H    1.751316740  -1.989500827  -7.195379320
  O    2.126950270  -3.866233421  -7.856739310
  C    1.182113539  -4.912391326  -8.028602699
  H    0.990390178  -4.969506828  -9.132587684
  C    0.374633363  -3.441717961  -6.251784521
  H    0.364686463  -3.714208174  -5.164524799
  C   -0.030532150  -4.624869229  -7.143802832
  H   -0.920196339  -4.354040947  -7.757086668
  H   -0.362373439  -5.489247987  -6.528480666
  O   -0.489080966  -2.316279351  -6.544732266
  N    1.888944567  -6.191788255  -7.643545291
  C    2.358188822  -7.156466563  -8.558695457
  C    3.121880881  -8.101381292  -7.810575825
  N    3.122362220  -7.683592574  -6.465434107
  C    2.394963756  -6.545381516  -6.375267901
  N    2.129605091  -7.210617402  -9.906415689
  C    2.715061098  -8.272193762 -10.549351924
  N    3.495606477  -9.249967474  -9.881969101
  C    3.749187067  -9.226429405  -8.450625967
  N    2.514350656  -8.387249326 -11.899750543
  H    1.969420881  -7.677189950 -12.387139710
  H    2.963133196  -9.091592664 -12.466740412
  O    4.430712560 -10.119580847  -7.997967845
  H    2.219718533  -5.931307914  -5.453331569
  H    3.916358957 -10.034598625 -10.401428525
  P   -1.536604669  -1.932799879  -5.329286868
  O   -2.496823999  -0.810209922  -6.046175875
  C   -1.891428719   0.460686064  -6.369248392
  H   -2.711043666   0.967961818  -6.923246331
  H   -1.039553204   0.320089017  -7.065022837
  C   -1.497573711   1.242175895  -5.107797712
  H   -0.452345695   1.027524588  -4.761328495
  O   -1.459558084   2.650127578  -5.478516049
  C   -2.371291441   3.424446048  -4.698278234
  H   -1.779650655   4.321280251  -4.370501002
  C   -2.507066246   1.110869678  -3.938885937
  H   -3.388234190   0.477280138  -4.200745453
  C   -2.896737933   2.552682827  -3.565620738
  H   -2.380263911   2.812671206  -2.602971821
  H   -3.964348680   2.659790229  -3.317006615
  O   -1.780306422   0.612457835  -2.809997063
  O   -0.719178415  -1.482277065  -4.139357335
  O   -2.399176765  -3.288059889  -5.296994314
  N   -3.399966350   3.926766470  -5.667904265
  C   -4.763797544   3.696894038  -5.817178522
  C   -5.197012812   4.504881545  -6.923200436
  N   -4.100867233   5.187618374  -7.471088628
  C   -3.046817089   4.838123368  -6.739317836
  N   -5.680652151   2.916667560  -5.119635410
  C   -7.019360060   2.979728752  -5.541348999
  N   -7.463702283   3.728094523  -6.540889460
  C   -6.581045882   4.535255161  -7.285438633
  H   -7.744653558   2.347523538  -4.976366139
  N   -7.084543672   5.282761808  -8.282953377
  H   -8.079457254   5.278891135  -8.502205211
  H   -6.481033856   5.884164077  -8.843362202
  H   -2.016329556   5.159127187  -6.881223226
  P   -2.084333275  -0.963809286  -2.407714958
  O   -0.732642012  -1.381272704  -1.608332536
  C   -0.300674321  -2.748978889  -1.763321282
  H    0.100533386  -2.895041243  -2.786842721
  H    0.545450791  -2.796099193  -1.042355718
  C   -1.437114888  -3.701930174  -1.373834960
  H   -1.212654466  -4.229618831  -0.415688076
  O   -2.597935197  -2.849950508  -1.123342060
  C   -3.827349877  -3.662915188  -1.280340955
  H   -4.138327640  -3.905847740  -0.232902747
  C   -1.940295422  -4.705391190  -2.444171880
  H   -1.793480667  -4.383131915  -3.503833883
  C   -3.423802421  -4.894252356  -2.094628208
  H   -4.047512281  -5.059857839  -3.004695142
  H   -3.557022106  -5.833796669  -1.510303947
  O   -1.320577581  -5.999160600  -2.218501283
  O   -2.898387461  -1.672570899  -3.484252765
  O   -3.025252850  -0.567146864  -1.101686249
  N   -4.843400756  -2.740059284  -1.857587958
  C   -4.990361101  -2.598451596  -3.274613936
  N   -5.546077441  -1.382418716  -3.758136191
  C   -5.836177492  -0.260809037  -2.936094476
  C   -5.809351504  -0.521865635  -1.497704748
  C   -5.275226590  -1.674933888  -1.014483864
  O   -4.787380827  -3.517266682  -4.059602975
  H   -5.589035050  -1.283686891  -4.784283081
  O   -6.068019213   0.804683068  -3.502110274
  C   -6.325380934   0.544085272  -0.594732983
  H   -6.652172110   1.437954964  -1.149626133
  H   -7.196452411   0.201549623  -0.013685577
  H   -5.555114321   0.876083463   0.119741892
  H   -5.169347540  -1.853231282   0.065018003
  P    0.205672258  -6.116156668  -2.794404974
  O    1.000715590  -5.249179549  -1.629209632
  C    2.422520585  -5.451990517  -1.482391884
  H    2.919253844  -5.761213162  -2.428782310
  H    2.778551549  -4.430052655  -1.218625610
  C    2.652353196  -6.426532536  -0.324826551
  H    1.863803714  -6.292805284   0.456936939
  O    2.443386010  -7.807195930  -0.759285897
  C    3.616916667  -8.613171935  -0.552696750
  H    3.295780047  -9.376270743   0.201839642
  C    4.091287211  -6.343063317   0.254362604
  H    4.676629314  -5.471316544  -0.125632884
  C    4.747929028  -7.690947353  -0.088537529
  H    5.527455466  -7.558070004  -0.867959722
  H    5.300037341  -8.098930656   0.782287546
  O    4.054082351  -6.081220756   1.643170968
  O    0.460428687  -5.475902298  -4.118124469
  O    0.524490433  -7.678915281  -2.634907765
  N    3.931603819  -9.318848860  -1.837482034
  C    3.754503709  -8.690728005  -3.137973708
  N    4.175372382  -9.359303773  -4.267078245
  C    4.754034461 -10.601788097  -4.179910806
  C    4.899743503 -11.252964682  -2.895344676
  C    4.492425026 -10.600542857  -1.768343575
  O    3.205117943  -7.595853177  -3.199137802
  N    5.174708295 -11.171281260  -5.339012362
  H    5.587425917 -12.092749147  -5.365472605
  H    5.033915909 -10.698238372  -6.238671149
  H    1.873787539  -4.298731117  -4.365861127
  H    4.592342843 -11.058221940  -0.772103700
  H    5.325716701 -12.255394315  -2.835758695
  H    3.634280453  -6.805937993   2.158300807
  H   -3.344390819  -3.246576176  -4.860218557
  H   -2.598066574  -0.694807805  -0.208869689
  H    1.509191991  -7.904588609  -2.343582890
  H    3.589659881  -8.202126657  -5.684694783
  H   -5.398150491   2.266938756  -4.349635239

