%mem=64gb
%nproc=28       
%Chk=snap_15.chk
# opt b3lyp/6-31g(d,p)  scf=(xqc, tight)  pop=min    

tetra snap_15 

2     1 
  O   -0.307017253  -6.297566390  -7.471530074
  C    0.729928976  -5.422936776  -7.014764774
  H    1.660733012  -5.870930379  -7.431616101
  H    0.781782067  -5.462480149  -5.905846501
  C    0.562322696  -3.981628472  -7.511203742
  H    1.123696819  -3.272344904  -6.846098816
  O    1.289727555  -3.843946815  -8.769992473
  C    0.410310116  -3.686237068  -9.868036599
  H    0.892399381  -2.923206358 -10.534752871
  C   -0.897789641  -3.544725361  -7.794440803
  H   -1.671011200  -4.254770304  -7.407772046
  C   -0.977437769  -3.344031201  -9.318766086
  H   -1.232648039  -2.275097717  -9.528932802
  H   -1.803780158  -3.919901542  -9.774254073
  O   -1.173631617  -2.219538218  -7.280946188
  N    0.411368405  -4.992495271 -10.627933552
  C    1.045475781  -5.222654173 -11.871423789
  C    0.905744860  -6.613500985 -12.147817571
  N    0.227231423  -7.204091499 -11.066965750
  C   -0.051397707  -6.233600175 -10.160754627
  N    1.671071582  -4.311383329 -12.669321743
  C    2.216021297  -4.836268148 -13.823729739
  N    2.113547552  -6.198395343 -14.179214833
  C    1.435964822  -7.201223487 -13.358021394
  N    2.877901567  -3.971102006 -14.652231444
  H    2.973674310  -2.992096979 -14.387532897
  H    3.349120469  -4.266661559 -15.495757749
  O    1.399389933  -8.332352677 -13.760774404
  H   -0.531367683  -6.360467328  -9.143030428
  H    2.523285925  -6.547683925 -15.060415099
  P   -1.241918151  -2.026456576  -5.655664603
  O   -1.385456763  -0.376697224  -5.676358827
  C   -0.544052369   0.349275705  -4.751771792
  H    0.033816183   1.051803114  -5.395276619
  H    0.163425050  -0.313831595  -4.202635186
  C   -1.437116121   1.125136325  -3.780554175
  H   -0.935780205   1.233868639  -2.780762783
  O   -1.508525551   2.508279870  -4.260887594
  C   -2.848718876   2.926747448  -4.452734573
  H   -2.909185258   3.941634344  -3.997852490
  C   -2.899517996   0.627563092  -3.627921323
  H   -3.177485094  -0.207645696  -4.312872293
  C   -3.778127090   1.870043182  -3.855018836
  H   -4.192225474   2.199703536  -2.868674475
  H   -4.668647289   1.647727871  -4.471435437
  O   -3.134979865   0.275353165  -2.255100095
  O   -0.129642977  -2.605753616  -4.872027222
  O   -2.718643223  -2.464161556  -5.222924881
  N   -3.055542830   3.049286201  -5.939512188
  C   -3.399402816   4.185601181  -6.665021384
  C   -3.480116500   3.787282829  -8.040885988
  N   -3.161008671   2.425473111  -8.155075415
  C   -2.904352112   1.998504946  -6.918718902
  N   -3.665635470   5.503325269  -6.287032939
  C   -4.015129829   6.392963350  -7.323599166
  N   -4.108688187   6.062268011  -8.599527283
  C   -3.844586759   4.746598254  -9.036760955
  H   -4.231895276   7.445845126  -7.031261289
  N   -3.952591398   4.480197605 -10.348867673
  H   -4.216655018   5.202324278 -11.019156087
  H   -3.776298738   3.542767554 -10.708574050
  H   -2.594775407   0.987123665  -6.627371684
  P   -2.712584214  -1.255235643  -1.794808836
  O   -1.095743248  -0.996742953  -1.923415619
  C   -0.166696707  -2.054192596  -1.585263398
  H   -0.060747909  -2.711607287  -2.481198315
  H    0.787232415  -1.505871297  -1.432676869
  C   -0.633823114  -2.776807634  -0.322965383
  H   -0.636025986  -2.132717319   0.590287832
  O   -2.053029339  -3.071850233  -0.574837040
  C   -2.265090225  -4.518390478  -0.724467019
  H   -3.264138099  -4.676165873  -0.250694542
  C    0.049607425  -4.135947752  -0.041373254
  H    0.846869468  -4.377223817  -0.789253616
  C   -1.091871706  -5.159258429  -0.015656582
  H   -0.796513920  -6.160117707  -0.437282260
  H   -1.338055071  -5.442753904   1.041888553
  O    0.586466731  -4.014976995   1.294125835
  O   -3.285877581  -2.310884588  -2.694610655
  O   -3.254114952  -1.085903785  -0.282446986
  N   -2.360788793  -4.838817710  -2.181669492
  C   -1.203217433  -5.078933813  -2.971578599
  N   -1.425268420  -5.408759802  -4.329625058
  C   -2.701681643  -5.417248108  -4.980491487
  C   -3.828746457  -5.094063599  -4.114147132
  C   -3.637503759  -4.797868693  -2.799496930
  O   -0.056503866  -5.024910801  -2.556972438
  H   -0.574631313  -5.597337502  -4.886388312
  O   -2.675273521  -5.662986956  -6.181454849
  C   -5.181909515  -5.063422646  -4.736699279
  H   -5.871429552  -5.776603906  -4.258910513
  H   -5.631353664  -4.059843496  -4.672163933
  H   -5.148305184  -5.325661963  -5.807970583
  H   -4.475831253  -4.508735064  -2.148493190
  P    2.051731454  -4.700064363   1.573886005
  O    2.141392874  -5.729711006   0.306299290
  C    3.461867656  -6.218236935  -0.074929862
  H    4.031849926  -5.362530567  -0.489251168
  H    3.972288841  -6.657586353   0.808083807
  C    3.224283610  -7.304964957  -1.133624458
  H    4.037522003  -7.310441014  -1.896721019
  O    3.354937166  -8.593063436  -0.467501140
  C    2.073890549  -9.270567078  -0.441758717
  H    2.327160704 -10.354720946  -0.432610080
  C    1.820575202  -7.305253639  -1.802234504
  H    1.108107274  -6.601414358  -1.315362342
  C    1.347108848  -8.764896705  -1.686703414
  H    0.240778878  -8.853490676  -1.627317055
  H    1.649287037  -9.340458100  -2.584889784
  O    1.972619525  -6.938876409  -3.178179956
  O    2.285414907  -5.141448840   2.948431848
  O    3.075756405  -3.522517097   1.035628582
  N    1.446362705  -8.888367407   0.870851324
  C    0.235477185  -8.064097834   0.987517608
  N    0.033029266  -7.350514536   2.155965936
  C    0.855182019  -7.517392081   3.230049326
  C    1.977058405  -8.426916714   3.179705159
  C    2.264950424  -9.045213420   1.998399013
  O   -0.533126358  -8.004826196   0.036709836
  N    0.541915594  -6.825482856   4.381502413
  H    1.282093431  -6.630994258   5.045349113
  H   -0.154543458  -6.090240103   4.315950777
  H   -1.130486977  -6.220098690  -6.885915732
  H    3.153489915  -9.683957129   1.882749021
  H    2.583263657  -8.592794264   4.067467267
  H    1.386802181  -6.162556954  -3.347362697
  H   -2.902676115  -2.571795539  -4.147983768
  H   -3.291799216  -1.916714997   0.303681164
  H    3.628575206  -3.039883194   1.699492143
  H    0.007662839  -8.195702314 -11.007007062
  H   -3.573593559   5.815261443  -5.317184757

