%mem=64gb
%nproc=28       
%Chk=snap_172.chk
# opt b3lyp/6-31g(d,p)  scf=(xqc, tight)  pop=min    

tetra snap_172 

2     1 
  O    3.457384628  -4.209072565  -4.464416329
  C    3.781065371  -2.966783139  -5.102272504
  H    4.718800319  -3.207739198  -5.652228738
  H    4.003852569  -2.225033633  -4.309146947
  C    2.708711906  -2.441825486  -6.060209467
  H    2.931305027  -1.388573389  -6.377096733
  O    2.782812787  -3.174220047  -7.319353583
  C    1.603179530  -3.930548070  -7.555274259
  H    1.317986344  -3.729794337  -8.620539198
  C    1.255702960  -2.570009230  -5.549851566
  H    1.200341198  -2.874519382  -4.475282176
  C    0.565497805  -3.567482403  -6.491221627
  H   -0.349198006  -3.131939697  -6.951939780
  H    0.201377136  -4.450975149  -5.915743910
  O    0.724953191  -1.231728373  -5.720280655
  N    2.003398470  -5.381620791  -7.467849569
  C    1.775497604  -6.358105191  -8.455140990
  C    2.372503272  -7.564457143  -7.983718806
  N    2.961106833  -7.293008696  -6.731943224
  C    2.735478503  -5.994628941  -6.431541604
  N    1.106921539  -6.211510274  -9.641120548
  C    1.039116103  -7.347456772 -10.406564463
  N    1.609732382  -8.584717700 -10.015355774
  C    2.326274135  -8.771067569  -8.764511582
  N    0.362289241  -7.274345022 -11.596806370
  H   -0.018541696  -6.380387562 -11.900879818
  H    0.327707132  -8.035704178 -12.258524107
  O    2.779044483  -9.873095947  -8.545867351
  H    3.088854336  -5.413053390  -5.503724469
  H    1.534201043  -9.415169867 -10.621006297
  P   -0.623523352  -0.888865127  -4.846497082
  O   -0.985444513   0.587941930  -5.503616182
  C   -0.391570975   1.753586070  -4.878925634
  H   -0.133527410   2.400309887  -5.751210731
  H    0.536870750   1.497641091  -4.326501183
  C   -1.402583700   2.442039969  -3.967783053
  H   -0.875457094   3.021090876  -3.167995749
  O   -2.124342921   3.434281392  -4.774909803
  C   -3.467074932   3.586509299  -4.282334052
  H   -3.584201892   4.669173824  -4.030036471
  C   -2.532205376   1.571332798  -3.363695288
  H   -2.889363796   0.787183164  -4.080877796
  C   -3.656255963   2.593098094  -3.127022859
  H   -3.549793161   3.075675196  -2.131912390
  H   -4.663929497   2.123427784  -3.103335172
  O   -2.039538445   1.020114746  -2.146535848
  O   -0.316597471  -0.884208195  -3.382148890
  O   -1.696979927  -1.765655299  -5.659346944
  N   -4.391478743   3.285216896  -5.422633769
  C   -4.418875521   2.181802255  -6.270026915
  C   -5.660862074   2.234612622  -6.987592986
  N   -6.383606581   3.369085326  -6.589086047
  C   -5.641676595   3.977818912  -5.666470010
  N   -3.508445554   1.155660132  -6.509023248
  C   -3.895167179   0.162807062  -7.414747678
  N   -5.060592380   0.133865164  -8.049618586
  C   -5.992927896   1.182146032  -7.894923355
  H   -3.168397555  -0.667284659  -7.585027698
  N   -7.133548546   1.129750738  -8.607238327
  H   -7.330018531   0.358850553  -9.241117918
  H   -7.836349966   1.864305961  -8.522405313
  H   -5.892994643   4.895080915  -5.139476254
  P   -2.213948097  -0.637904425  -2.067359130
  O   -1.069183776  -1.043887630  -0.992773401
  C   -0.443265967  -2.337067386  -1.152214045
  H    0.223556094  -2.332147054  -2.040166370
  H    0.191753215  -2.382051531  -0.238897304
  C   -1.510616616  -3.435315854  -1.166728470
  H   -1.496509400  -4.035747679  -0.225386315
  O   -2.793203483  -2.738064622  -1.210151472
  C   -3.816869164  -3.657104779  -1.770954382
  H   -4.363887467  -4.042927857  -0.873903191
  C   -1.565476483  -4.361467881  -2.407143738
  H   -1.168774314  -3.899315650  -3.339591559
  C   -3.048654638  -4.739670199  -2.530376878
  H   -3.360274682  -4.848248542  -3.595277380
  H   -3.220866769  -5.749224188  -2.091596493
  O   -0.878961423  -5.587945142  -2.059984128
  O   -2.548678381  -1.170154114  -3.453980867
  O   -3.548392678  -0.570215112  -1.099275273
  N   -4.742905917  -2.804415771  -2.554330801
  C   -4.448432683  -2.451482521  -3.905236841
  N   -5.096010805  -1.310838128  -4.432079844
  C   -5.843182801  -0.366634340  -3.646007579
  C   -6.202004080  -0.855329803  -2.308075752
  C   -5.630175366  -1.973602122  -1.800095093
  O   -3.753440855  -3.149153631  -4.645288328
  H   -4.854625850  -1.048761574  -5.390845631
  O   -6.060989944   0.710765992  -4.164477910
  C   -7.173302466  -0.025129401  -1.546347897
  H   -8.094592234   0.154664832  -2.126452463
  H   -7.481414927  -0.477381671  -0.593405662
  H   -6.747759033   0.965494472  -1.311953195
  H   -5.832443347  -2.317472187  -0.777116305
  P    0.638826118  -5.725723447  -2.645461794
  O    1.541075853  -5.218072808  -1.369604558
  C    2.931102319  -5.624645446  -1.344065293
  H    3.355224069  -5.811056196  -2.356408767
  H    3.422596433  -4.722466718  -0.911549227
  C    3.077969455  -6.822109733  -0.402169479
  H    2.420647457  -6.720323014   0.501364883
  O    2.576132659  -8.035049785  -1.046003874
  C    3.569811528  -9.082763765  -1.043308009
  H    3.151822311  -9.858840366  -0.352032801
  C    4.552083641  -7.092749899  -0.005414954
  H    5.262586485  -6.308517334  -0.341088221
  C    4.898664482  -8.476010667  -0.583485156
  H    5.628821416  -8.390658563  -1.413440884
  H    5.389041061  -9.113510512   0.180067364
  O    4.508431139  -7.121255066   1.420968352
  O    0.909691022  -4.852113391  -3.830307853
  O    0.779821189  -7.311133439  -2.837900931
  N    3.623424928  -9.638061885  -2.432566340
  C    3.668301533  -8.771558845  -3.606646769
  N    3.743584111  -9.353907893  -4.855712141
  C    3.829784388 -10.717152044  -4.997623820
  C    3.804302037 -11.581780074  -3.838325534
  C    3.691876935 -11.026130301  -2.597403852
  O    3.589736232  -7.561714491  -3.442529483
  N    3.947593537 -11.203950800  -6.261408268
  H    3.966991426 -12.195702992  -6.451463128
  H    3.870345291 -10.585952962  -7.073731494
  H    2.547516296  -4.179598223  -4.017326152
  H    3.654804607 -11.648213581  -1.689661179
  H    3.868772153 -12.664007693  -3.961162191
  H    5.407364465  -7.078215233   1.816647708
  H   -2.514104744  -2.162558755  -5.128190750
  H   -3.410682342  -0.808916312  -0.139372237
  H    1.694727962  -7.732095775  -2.550247666
  H    3.424455356  -8.016260314  -6.124919465
  H   -2.556422175   1.166987552  -6.072001667

