%mem=64gb
%nproc=28       
%Chk=snap_97.chk
# opt b3lyp/6-31g(d,p)  scf=(xqc, tight)  pop=min    

tetra snap_97 

2     1 
  O    2.970590818  -4.854914753  -7.016142251
  C    3.406611592  -3.533005582  -6.717658259
  H    4.427569789  -3.511698251  -7.161765942
  H    3.482854095  -3.389098551  -5.620153055
  C    2.534555800  -2.438216116  -7.338846540
  H    2.930988189  -1.425140002  -7.078411730
  O    2.689549801  -2.480576483  -8.798543788
  C    1.459090590  -2.824154657  -9.421083405
  H    1.474099897  -2.341420994 -10.427807036
  C    1.008568467  -2.531684996  -7.064822338
  H    0.695116801  -3.470155042  -6.545241663
  C    0.356042706  -2.400264542  -8.455289638
  H    0.059340005  -1.341578609  -8.639168717
  H   -0.592908059  -2.974587996  -8.536779995
  O    0.634899667  -1.352254495  -6.331254388
  N    1.522454260  -4.325716597  -9.635359614
  C    0.659387926  -5.332730807  -9.138919031
  C    1.356082516  -6.572163225  -9.268787944
  N    2.618019905  -6.305410722  -9.820678205
  C    2.724183439  -4.966016092 -10.010659014
  N   -0.590489746  -5.186887768  -8.624145457
  C   -1.157881241  -6.339172725  -8.120286202
  N   -0.527052566  -7.597334485  -8.194522354
  C    0.794243063  -7.807650762  -8.765828580
  N   -2.431608284  -6.252814139  -7.606523541
  H   -2.853229058  -5.325573258  -7.558485437
  H   -2.718842960  -6.867084856  -6.836594950
  O    1.261095298  -8.917038102  -8.738485933
  H    3.594387428  -4.422740184 -10.392708614
  H   -0.965371101  -8.412228493  -7.739959950
  P    0.317108361  -1.557006961  -4.701762791
  O   -0.078768269   0.053666707  -4.620682184
  C    0.586141848   0.857469718  -3.613316147
  H    1.384435538   1.427842417  -4.138525664
  H    1.041703666   0.231981030  -2.812985135
  C   -0.499335090   1.780326805  -3.065238827
  H   -0.240610593   2.143312220  -2.038922734
  O   -0.535045192   2.977927620  -3.911964517
  C   -1.874456446   3.493276182  -3.982224680
  H   -1.833386629   4.534507408  -3.572450913
  C   -1.952399444   1.231524991  -3.131290759
  H   -2.124817819   0.546834215  -3.996575005
  C   -2.794328318   2.508781437  -3.242693048
  H   -3.067297426   2.876900647  -2.224621376
  H   -3.769359407   2.339567143  -3.737250420
  O   -2.286578118   0.597310837  -1.880250061
  O    1.446796883  -2.055073032  -3.899668895
  O   -1.018432386  -2.455974173  -4.921524077
  N   -2.231746299   3.590106626  -5.432987345
  C   -1.945096928   2.718583941  -6.479242639
  C   -2.688998434   3.174625398  -7.617871653
  N   -3.412912335   4.325712171  -7.273494667
  C   -3.144226007   4.567915204  -5.992684842
  N   -1.122533463   1.602765351  -6.575916506
  C   -1.090396718   0.942027375  -7.806347307
  N   -1.776470948   1.310213037  -8.883157889
  C   -2.607741583   2.449042010  -8.849995989
  H   -0.435595514   0.027149805  -7.864183812
  N   -3.286885192   2.780562507  -9.962308874
  H   -3.200683927   2.240661696 -10.821211977
  H   -3.895174416   3.600577841  -9.979823441
  H   -3.529954841   5.392012119  -5.396062755
  P   -1.942197545  -1.004123485  -1.857562611
  O   -1.653589372  -1.275575711  -0.288191023
  C   -1.048503996  -2.585013653  -0.066513108
  H   -0.548927792  -2.988566114  -0.975064614
  H   -0.262524692  -2.353189651   0.703404113
  C   -2.078070290  -3.543661139   0.524996873
  H   -2.361234271  -3.259494539   1.566757747
  O   -3.350407678  -3.489021450  -0.216604908
  C   -3.890289528  -4.811385350  -0.393827174
  H   -4.926960884  -4.745975797   0.022325270
  C   -1.628126678  -5.026840220   0.402980774
  H   -1.013858320  -5.197287347  -0.522220247
  C   -2.954523779  -5.795936693   0.308244170
  H   -2.844867757  -6.767694540  -0.205027610
  H   -3.313062871  -6.061864481   1.330713141
  O   -0.961273352  -5.432410027   1.605373763
  O   -0.831958270  -1.427820988  -2.781199565
  O   -3.330679166  -1.724479433  -2.270737058
  N   -3.991199994  -5.065681561  -1.878459265
  C   -2.838838949  -5.081622075  -2.722202718
  N   -2.973835790  -5.760874195  -3.952665101
  C   -4.141818055  -6.473183734  -4.376734597
  C   -5.319909787  -6.287824543  -3.520037931
  C   -5.210971197  -5.633035413  -2.337459899
  O   -1.788053620  -4.522201476  -2.444494891
  H   -2.123926708  -5.844629827  -4.550608878
  O   -4.031691794  -7.149993325  -5.386419727
  C   -6.603008902  -6.863989416  -4.003801947
  H   -6.741673482  -7.900418361  -3.649361388
  H   -7.483464733  -6.290494168  -3.677055066
  H   -6.648863303  -6.906599877  -5.106283384
  H   -6.075545422  -5.502715893  -1.668224144
  P    0.681165668  -5.548693851   1.454752677
  O    0.697895794  -6.266345039  -0.052622411
  C    1.907895292  -6.880954856  -0.514361220
  H    2.553318796  -7.226584241   0.319921840
  H    1.549374775  -7.776448925  -1.065507491
  C    2.635676115  -5.907724383  -1.455269126
  H    3.564248575  -5.485359063  -1.004581328
  O    3.115710276  -6.724373819  -2.577331622
  C    2.681534727  -6.186818009  -3.833256480
  H    3.539454402  -6.325371813  -4.532505836
  C    1.759823767  -4.798312684  -2.091032421
  H    0.666055822  -4.991223436  -1.993353975
  C    2.233029836  -4.759945132  -3.550254077
  H    1.449405010  -4.362156176  -4.224896441
  H    3.077882199  -4.042091305  -3.658483259
  O    2.059591980  -3.571275604  -1.415608681
  O    1.431439416  -6.182882856   2.520363855
  O    0.996819315  -3.999546426   1.024482831
  N    1.533478744  -7.070491427  -4.298490050
  C    0.443973988  -6.561547029  -5.113378702
  N   -0.691795415  -7.333293844  -5.263755373
  C   -0.733654385  -8.616340341  -4.773756352
  C    0.394901227  -9.181960788  -4.089297241
  C    1.487392173  -8.389394992  -3.848404156
  O    0.554990506  -5.466255288  -5.661373636
  N   -1.888364482  -9.307730070  -5.021580893
  H   -2.034144074 -10.240774062  -4.660608542
  H   -2.706305549  -8.818446025  -5.386009125
  H    2.129907518  -5.095160588  -6.541781061
  H    2.370833343  -8.754617397  -3.291740690
  H    0.386522038 -10.224622110  -3.769784136
  H    1.750961777  -2.797587499  -1.984683882
  H   -1.446129225  -2.849872781  -4.087380052
  H   -3.585734110  -2.561782933  -1.718941432
  H    1.705910438  -3.799500164   0.319724229
  H    3.315716196  -7.020005608 -10.013939938
  H   -0.540894088   1.285205039  -5.766895298

