%mem=64gb
%nproc=28       
%Chk=snap_89.chk
# opt b3lyp/6-31g(d,p)  scf=(xqc, tight)  pop=min    

tetra snap_89 

2     1 
  O    3.160725204  -5.089889727  -6.906082178
  C    3.457598925  -3.699214459  -6.784960196
  H    4.369237312  -3.592358644  -7.415182258
  H    3.711752278  -3.461641516  -5.730210588
  C    2.333773391  -2.793346480  -7.299178522
  H    2.661471873  -1.724412875  -7.329357141
  O    2.105933935  -3.130078752  -8.710309404
  C    0.779373541  -3.586680003  -8.916331568
  H    0.489910943  -3.246850974  -9.940571298
  C    0.961818617  -2.931280338  -6.592152469
  H    0.935535413  -3.789863925  -5.870754983
  C   -0.054060569  -3.093670007  -7.736705735
  H   -0.544104308  -2.128023874  -7.976457879
  H   -0.904634511  -3.755026992  -7.451384402
  O    0.747237015  -1.681906216  -5.899788166
  N    0.833602102  -5.104617489  -8.946923805
  C   -0.260389712  -5.981248926  -8.767485085
  C    0.275009798  -7.298382456  -8.690853149
  N    1.672046316  -7.202251559  -8.819372184
  C    1.998982259  -5.886133494  -8.961938249
  N   -1.584295455  -5.653509079  -8.709331787
  C   -2.437211065  -6.716912504  -8.545820429
  N   -1.983132413  -8.044856178  -8.372852940
  C   -0.583168178  -8.427318231  -8.416463531
  N   -3.796525291  -6.491863089  -8.677325315
  H   -4.094984196  -5.513289682  -8.667948023
  H   -4.444410567  -7.094242942  -8.171273806
  O   -0.315729366  -9.594332137  -8.237624173
  H    3.010063871  -5.461594867  -9.062684020
  H   -2.658873587  -8.805590452  -8.214857905
  P   -0.329960884  -1.770455856  -4.631754904
  O   -0.688396605  -0.146079969  -4.668877993
  C   -0.266525385   0.584373689  -3.485038733
  H    0.457760937   1.344067486  -3.859395503
  H    0.253625875  -0.063311505  -2.741805422
  C   -1.494938744   1.256728710  -2.867765744
  H   -1.459888281   1.219254379  -1.745656176
  O   -1.383751876   2.677430505  -3.177706351
  C   -2.651333449   3.227265637  -3.554322506
  H   -2.868309879   4.047395465  -2.820821782
  C   -2.875727720   0.797327288  -3.408620078
  H   -2.818922022   0.199222942  -4.351396359
  C   -3.679045467   2.090662060  -3.581944799
  H   -4.413835354   2.182842204  -2.740731716
  H   -4.312812722   2.083608260  -4.488960930
  O   -3.574384901   0.042355247  -2.390342398
  O    0.309301989  -2.230829284  -3.378429379
  O   -1.460724370  -2.597681506  -5.456229158
  N   -2.441170190   3.860767403  -4.891045144
  C   -1.883082071   3.328722471  -6.050658718
  C   -1.866859737   4.385662420  -7.020367090
  N   -2.388469171   5.557359100  -6.452792921
  C   -2.714026224   5.251721321  -5.200325324
  N   -1.405372560   2.061747830  -6.378143294
  C   -0.879804492   1.906351329  -7.672802282
  N   -0.858613993   2.848732757  -8.602461291
  C   -1.351718585   4.144643794  -8.333313683
  H   -0.464211675   0.903954371  -7.918604327
  N   -1.314857492   5.062734486  -9.311647011
  H   -0.935769597   4.848209318 -10.232970547
  H   -1.654709768   6.013457705  -9.153888286
  H   -3.141098171   5.927606160  -4.461241859
  P   -3.018140513  -1.491726795  -2.225846091
  O   -2.142173171  -1.397884062  -0.859513744
  C   -1.166389502  -2.461328915  -0.693100754
  H   -0.735179045  -2.776824005  -1.671519159
  H   -0.362816920  -1.940346458  -0.108437286
  C   -1.725279980  -3.619574727   0.132989861
  H   -1.963181272  -3.321157705   1.182122700
  O   -3.022236089  -4.062370801  -0.387200175
  C   -3.021143212  -5.461893755  -0.721236117
  H   -3.961442826  -5.858047272  -0.259126686
  C   -0.794012333  -4.863547764   0.044479714
  H   -0.065297716  -4.768638583  -0.808387608
  C   -1.739606441  -6.061415768  -0.161336033
  H   -1.291785240  -6.844084450  -0.799591719
  H   -1.918636742  -6.557973604   0.823223315
  O   -0.138545159  -5.098629934   1.284236804
  O   -2.232860611  -1.962049942  -3.422516027
  O   -4.362646665  -2.327485869  -1.934722062
  N   -3.160656210  -5.529785697  -2.217435265
  C   -2.033333119  -5.529291470  -3.094298665
  N   -2.307510015  -5.694313553  -4.476083944
  C   -3.612461271  -5.907664202  -5.025900659
  C   -4.718501244  -5.809570961  -4.062655601
  C   -4.473615289  -5.641596706  -2.740853095
  O   -0.886599118  -5.399630900  -2.705226592
  H   -1.480099578  -5.854753177  -5.095515739
  O   -3.685607392  -6.136299462  -6.219605493
  C   -6.093955791  -5.937955310  -4.615875368
  H   -6.882244562  -5.834963798  -3.855056702
  H   -6.294236446  -5.174034158  -5.385238692
  H   -6.242280265  -6.921727153  -5.093171491
  H   -5.290295957  -5.590318087  -2.004027001
  P    1.353801842  -4.412687854   1.554723445
  O    2.469415120  -5.450598544   0.931594991
  C    2.310369470  -6.167656191  -0.294477868
  H    2.914393989  -7.090090383  -0.104992053
  H    1.270662630  -6.471147886  -0.492767377
  C    2.957813450  -5.352723724  -1.423347913
  H    3.890108578  -4.845693747  -1.063374622
  O    3.420400393  -6.321706854  -2.417674760
  C    2.932090282  -6.011062501  -3.727644529
  H    3.818569989  -6.142673391  -4.398147934
  C    2.038239884  -4.374467174  -2.181803992
  H    0.946901904  -4.499660964  -1.948084486
  C    2.335205918  -4.608999204  -3.667483248
  H    1.413140171  -4.478745560  -4.277839275
  H    3.063618921  -3.852267361  -4.033893988
  O    2.448450450  -3.049776200  -1.794420014
  O    1.614975216  -4.072023869   2.937154088
  O    1.238821719  -3.230675946   0.422387184
  N    1.924063551  -7.088803540  -4.081538970
  C    0.909498685  -6.921795110  -5.111484652
  N    0.163719357  -8.001660026  -5.508603393
  C    0.336852982  -9.224564387  -4.900650635
  C    1.246414312  -9.378247308  -3.795708325
  C    2.031234678  -8.318292939  -3.430781759
  O    0.769313733  -5.809221636  -5.637498812
  N   -0.406233897 -10.264012574  -5.387883543
  H   -0.239583947 -11.212260935  -5.077958639
  H   -0.861782064 -10.165747523  -6.295605121
  H    2.392749545  -5.357118051  -6.327411964
  H    2.786286873  -8.393421924  -2.625092152
  H    1.327167178 -10.331768314  -3.273560602
  H    1.837267496  -2.392362595  -2.257162831
  H   -2.089792167  -3.178662258  -4.907213060
  H   -4.202202375  -3.191962404  -1.390266761
  H    2.049064815  -2.984292905  -0.169437843
  H    2.300546830  -7.999927007  -8.800918290
  H   -1.338290810   1.302976480  -5.672952025

