%mem=64gb
%nproc=28       
%Chk=snap_25.chk
# opt b3lyp/6-31g(d,p)  scf=(xqc, tight)  pop=min    

tetra snap_25 

2     1 
  O    1.076097834  -5.601996338  -7.501263096
  C    1.759455793  -4.347354980  -7.493842792
  H    2.725572339  -4.592408776  -7.991482806
  H    1.956335068  -4.029366064  -6.449911898
  C    1.021293511  -3.256269107  -8.273979307
  H    1.500053404  -2.257122805  -8.104464590
  O    1.244881381  -3.469409359  -9.704005739
  C    0.039175921  -3.765289088 -10.379523482
  H    0.125729013  -3.269454137 -11.382375121
  C   -0.515313387  -3.201026596  -8.073360268
  H   -0.915345711  -3.976860241  -7.375681109
  C   -1.119052337  -3.330785431  -9.482294935
  H   -1.511428254  -2.333377707  -9.799143655
  H   -2.000763471  -3.995177384  -9.510044257
  O   -0.885007793  -1.879418275  -7.627665539
  N    0.021383435  -5.257978839 -10.639381227
  C    0.489959741  -5.867475063 -11.828549774
  C    0.493819703  -7.272886486 -11.597994399
  N    0.057677365  -7.493773478 -10.279391549
  C   -0.213162559  -6.288481270  -9.712300361
  N    0.840666823  -5.251443525 -12.993259232
  C    1.255366997  -6.104587763 -13.994510830
  N    1.301843092  -7.507740244 -13.845553339
  C    0.917813112  -8.204647960 -12.618842217
  N    1.629058088  -5.540280118 -15.184038436
  H    1.612571967  -4.527162036 -15.288350209
  H    1.962353219  -6.078452352 -15.971296258
  O    0.992182297  -9.404138419 -12.604133071
  H   -0.559600586  -6.122786068  -8.674338772
  H    1.624119986  -8.110725339 -14.618506124
  P   -0.865732642  -1.654910094  -5.994621205
  O   -1.859673072  -0.335617632  -5.933252616
  C   -1.261713352   0.896662150  -5.485235961
  H   -1.581240604   1.641493065  -6.243935879
  H   -0.150410159   0.862172055  -5.458132127
  C   -1.848903349   1.222775100  -4.102890788
  H   -1.111821588   1.089428388  -3.271116250
  O   -2.107098788   2.664918881  -4.086377800
  C   -3.503058297   2.936190825  -4.104086489
  H   -3.647183213   3.800312806  -3.407138911
  C   -3.203097881   0.527452797  -3.799433313
  H   -3.474362969  -0.271704617  -4.529649968
  C   -4.244745263   1.661660248  -3.721031118
  H   -4.605873873   1.723941777  -2.657905147
  H   -5.159427925   1.446299252  -4.297284497
  O   -3.169865383   0.036428950  -2.453383639
  O    0.453816118  -1.495753623  -5.367924477
  O   -1.791122922  -2.861635561  -5.485443643
  N   -3.825014519   3.411429163  -5.496984126
  C   -3.346381636   4.583297114  -6.077396446
  C   -3.936509159   4.675111777  -7.380150086
  N   -4.731867048   3.543751857  -7.612117883
  C   -4.652388385   2.798947807  -6.508550022
  N   -2.474419294   5.566112210  -5.608244822
  C   -2.238773294   6.651014847  -6.476170541
  N   -2.789711549   6.792657726  -7.669897101
  C   -3.672830694   5.823497815  -8.193564193
  H   -1.542754222   7.442980046  -6.116526503
  N   -4.207388903   6.038306173  -9.405665136
  H   -3.992702525   6.879558480  -9.942525394
  H   -4.856480708   5.367955993  -9.819140503
  H   -5.138099669   1.839095780  -6.345871966
  P   -2.706841568  -1.518092658  -2.152389193
  O   -1.120561763  -1.145844596  -1.993159612
  C   -0.169179399  -2.152616916  -1.578582854
  H    0.122760366  -2.743377640  -2.473056575
  H    0.701082231  -1.542589339  -1.250443198
  C   -0.765769873  -2.990263358  -0.450481505
  H   -0.984388993  -2.403042260   0.476329032
  O   -2.084502929  -3.386622593  -0.968524075
  C   -2.144271023  -4.838834223  -1.188875422
  H   -3.190340657  -5.092805850  -0.890722054
  C   -0.021666620  -4.299907294  -0.097746845
  H    0.920767884  -4.445484814  -0.682288428
  C   -1.053781100  -5.412731364  -0.310756612
  H   -0.596578414  -6.360497569  -0.708127016
  H   -1.453279014  -5.764995399   0.678482302
  O    0.230414032  -4.194215453   1.321402661
  O   -3.044189415  -2.476362030  -3.253896083
  O   -3.530716172  -1.575083683  -0.759307692
  N   -1.969565719  -5.098996008  -2.647769491
  C   -0.671546617  -5.258882899  -3.225932621
  N   -0.641802935  -5.574556225  -4.608650728
  C   -1.784628094  -5.625429389  -5.463577119
  C   -3.064477324  -5.391023837  -4.804268949
  C   -3.122048185  -5.121105831  -3.471828173
  O    0.370978326  -5.131460581  -2.615159468
  H    0.293401854  -5.754295700  -5.012920221
  O   -1.547358228  -5.836246460  -6.652669446
  C   -4.282857381  -5.393040485  -5.661478702
  H   -4.657605578  -4.366884597  -5.811017563
  H   -4.080722027  -5.811756534  -6.660711898
  H   -5.098667713  -5.989209747  -5.226815723
  H   -4.076095491  -4.897879800  -2.971543826
  P    1.675448391  -4.715337814   1.886556562
  O    2.189857703  -5.674158901   0.660438784
  C    3.587490521  -6.090592604   0.751926142
  H    4.214478587  -5.203290396   0.523651927
  H    3.804432680  -6.487106547   1.767988194
  C    3.805121095  -7.199089251  -0.285785765
  H    4.855430745  -7.158954406  -0.660901974
  O    3.743619551  -8.480875840   0.394185173
  C    2.502797628  -9.156863897   0.079653299
  H    2.755639627 -10.241842990   0.145209157
  C    2.774872587  -7.270984155  -1.450586080
  H    2.040368748  -6.430513159  -1.444408812
  C    2.121196782  -8.658833670  -1.313237951
  H    1.019273981  -8.616737154  -1.483090156
  H    2.488092082  -9.356554764  -2.088966958
  O    3.423932251  -7.097776042  -2.701489485
  O    1.661503491  -5.188335317   3.272614765
  O    2.626355578  -3.393809075   1.616019443
  N    1.560381733  -8.803911391   1.193830284
  C    0.274163434  -8.125274555   1.002209753
  N   -0.276994940  -7.449322443   2.077170099
  C    0.277457580  -7.536325627   3.319732021
  C    1.464285198  -8.327150650   3.556363255
  C    2.093853372  -8.893830586   2.487810577
  O   -0.249473241  -8.154861067  -0.103477011
  N   -0.369817638  -6.888055338   4.350970033
  H    0.165860212  -6.631044221   5.171404576
  H   -1.105959235  -6.231822369   4.113528433
  H    0.272064883  -5.583291358  -6.914733864
  H    3.046041745  -9.435448492   2.597603554
  H    1.852808499  -8.437771427   4.566716512
  H    4.065582244  -7.815198960  -2.891918431
  H   -2.182623485  -2.829963867  -4.477685660
  H   -3.502457696  -2.431732990  -0.215984361
  H    2.933849543  -2.867956526   2.397288708
  H   -0.019412983  -8.413274304  -9.852395145
  H   -1.984114938   5.452088976  -4.713465555

