%mem=64gb
%nproc=28       
%Chk=snap_23.chk
# opt b3lyp/6-31g(d,p)  scf=(xqc, tight)  pop=min    

tetra snap_23 

2     1 
  O    0.801372238  -5.861356442  -7.505229969
  C    1.574197640  -4.664929030  -7.374659949
  H    2.509314406  -4.919898939  -7.925678088
  H    1.816718495  -4.479619128  -6.310599365
  C    0.902116683  -3.446836981  -8.014240296
  H    1.389930452  -2.494520335  -7.686696884
  O    1.190246825  -3.477412286  -9.448951585
  C    0.016362723  -3.708619361 -10.201461670
  H    0.149003195  -3.131183093 -11.153469910
  C   -0.641309062  -3.363965249  -7.877314474
  H   -1.080940290  -4.201288581  -7.288020216
  C   -1.177690930  -3.343432696  -9.322534372
  H   -1.533296771  -2.308987770  -9.552096463
  H   -2.071673511  -3.975590460  -9.457583084
  O   -0.955445794  -2.085471233  -7.312862876
  N    0.011152943  -5.176144278 -10.585136710
  C    0.644124135  -5.699008452 -11.738630643
  C    0.588984215  -7.118422133 -11.631245544
  N   -0.035463660  -7.435269500 -10.412659210
  C   -0.364037110  -6.272981177  -9.788506898
  N    1.180869644  -5.001164750 -12.779525572
  C    1.725095918  -5.782058769 -13.777347486
  N    1.705454338  -7.193413960 -13.753033565
  C    1.124154914  -7.976390777 -12.664085952
  N    2.304445767  -5.135419830 -14.835382255
  H    2.342410104  -4.117700410 -14.845484937
  H    2.742488944  -5.620208236 -15.605567146
  O    1.152510227  -9.174305119 -12.752314454
  H   -0.841333516  -6.184292249  -8.799033051
  H    2.113583831  -7.740695181 -14.526210430
  P   -1.466568065  -2.086295645  -5.725026796
  O   -1.999660160  -0.520143190  -5.761709097
  C   -1.115802780   0.463688699  -5.187618259
  H   -1.011056243   1.237703648  -5.979775171
  H   -0.110292372   0.060917571  -4.946130879
  C   -1.801839071   1.048209304  -3.944294935
  H   -1.199371961   0.895205603  -3.010640079
  O   -1.792397443   2.504773218  -4.099586743
  C   -3.111876935   3.028277938  -4.110724908
  H   -3.071615737   3.964054786  -3.506350915
  C   -3.288149060   0.625926498  -3.767958272
  H   -3.679444027   0.015490154  -4.619702177
  C   -4.054802589   1.947815679  -3.585955608
  H   -4.264247401   2.090021675  -2.494939807
  H   -5.057758982   1.935832906  -4.049517818
  O   -3.495738938  -0.093078833  -2.548237279
  O   -0.368661913  -2.467006748  -4.815680572
  O   -2.800818609  -2.981997614  -5.975549677
  N   -3.417771956   3.387962461  -5.540262456
  C   -3.272066812   4.632207834  -6.148148548
  C   -3.681727946   4.475931807  -7.513742540
  N   -4.020576603   3.135789726  -7.751606029
  C   -3.844646251   2.496897723  -6.595553350
  N   -2.841680696   5.870526505  -5.668407645
  C   -2.848350185   6.935374618  -6.594471842
  N   -3.248386779   6.837738822  -7.849558707
  C   -3.699739014   5.611257793  -8.384827870
  H   -2.495891854   7.925921099  -6.224677957
  N   -4.121786880   5.591441360  -9.658752046
  H   -4.123818740   6.435513993 -10.233182079
  H   -4.457376928   4.728837444 -10.088692463
  H   -3.974080360   1.428205763  -6.424319333
  P   -2.772334113  -1.587233330  -2.435885710
  O   -1.392979713  -0.950834538  -1.830539791
  C   -0.250104987  -1.827658139  -1.629820392
  H    0.002714479  -2.364085019  -2.577375995
  H    0.562688827  -1.119819486  -1.373495995
  C   -0.664311832  -2.729983009  -0.473159686
  H   -0.888713076  -2.167534278   0.466403966
  O   -1.974037216  -3.218895317  -0.937527834
  C   -1.968430137  -4.676011009  -1.061759763
  H   -2.965850102  -4.976098196  -0.655522813
  C    0.203186896  -3.970150880  -0.179835102
  H    1.084588814  -4.061774217  -0.861526501
  C   -0.771260320  -5.152059702  -0.266044315
  H   -0.283396493  -6.079835572  -0.670496841
  H   -1.080388494  -5.491390153   0.761753122
  O    0.619081369  -3.792563244   1.193638299
  O   -2.647141626  -2.270093207  -3.763130114
  O   -3.910560230  -2.213668242  -1.468892349
  N   -1.918266207  -5.006086682  -2.521614305
  C   -0.678775174  -5.101868386  -3.220118360
  N   -0.755967237  -5.543482594  -4.563618144
  C   -1.966782816  -5.759905319  -5.292508354
  C   -3.191595942  -5.583023509  -4.514825137
  C   -3.137118862  -5.214914163  -3.206293236
  O    0.411331895  -4.882744773  -2.721355525
  H    0.140258087  -5.644660133  -5.063823684
  O   -1.820488728  -6.031057460  -6.479407409
  C   -4.475189238  -5.828837916  -5.227795471
  H   -4.415538433  -5.519684427  -6.285536852
  H   -4.728453172  -6.903448086  -5.228236458
  H   -5.327116455  -5.296989519  -4.783713075
  H   -4.051286930  -5.061128373  -2.611085313
  P    2.003060963  -4.542463591   1.659361543
  O    2.141131165  -5.662223881   0.474050536
  C    3.463544996  -6.242709610   0.266236846
  H    4.121510845  -5.450794723  -0.145947554
  H    3.859618234  -6.637255477   1.225842313
  C    3.275995603  -7.393060588  -0.731623339
  H    4.140607672  -7.463479724  -1.433354898
  O    3.334090378  -8.635745125   0.023566400
  C    2.042650641  -9.291875781   0.000336068
  H    2.274084181 -10.377402069   0.090167036
  C    1.926869015  -7.415653659  -1.504606821
  H    1.192245093  -6.660830498  -1.131169313
  C    1.409940326  -8.853380161  -1.318915955
  H    0.301717448  -8.917354189  -1.326681923
  H    1.758285999  -9.494383835  -2.155237444
  O    2.204544172  -7.176053915  -2.885856084
  O    2.078494661  -4.896580993   3.077137925
  O    3.157202113  -3.474488648   1.158918809
  N    1.339939771  -8.824430860   1.243988167
  C    0.163696283  -7.942114039   1.238670019
  N   -0.063957674  -7.143651113   2.346451146
  C    0.683981855  -7.283964016   3.476652598
  C    1.741821172  -8.266399419   3.556553038
  C    2.070026826  -8.965794812   2.432693873
  O   -0.546542835  -7.910326594   0.244454312
  N    0.357031185  -6.498136084   4.562473165
  H    1.072645179  -6.317033124   5.256269700
  H   -0.266183868  -5.711805096   4.405991681
  H    0.034593574  -5.876474056  -6.871632917
  H    2.923740677  -9.659732069   2.413320444
  H    2.267901143  -8.426355478   4.494894097
  H    1.740241532  -6.354332132  -3.166763954
  H   -3.367859682  -3.180014947  -5.142456884
  H   -3.722735048  -2.263294909  -0.477420923
  H    3.684757006  -2.995923403   1.846717044
  H   -0.178958483  -8.384674213 -10.077810424
  H   -2.484845654   5.982396515  -4.715080275

