%mem=64gb
%nproc=28       
%Chk=snap_106.chk
# opt b3lyp/6-31g(d,p)  scf=(xqc, tight)  pop=min    

tetra snap_106 

2     1 
  O    3.527181616  -4.730028462  -6.773509549
  C    3.592782297  -3.306855072  -6.722087716
  H    4.470019476  -3.079150521  -7.367904319
  H    3.825847385  -2.983754267  -5.688162854
  C    2.333196195  -2.607280543  -7.249466352
  H    2.492104079  -1.501348396  -7.323375862
  O    2.115858196  -3.007214035  -8.642816996
  C    0.915612283  -3.752505505  -8.773519911
  H    0.502430959  -3.501710369  -9.780962629
  C    1.016625068  -2.920964674  -6.497162800
  H    1.156490241  -3.640159700  -5.653500846
  C    0.041567458  -3.451985380  -7.560220880
  H   -0.737997754  -2.699502596  -7.802256406
  H   -0.530978931  -4.332052561  -7.189816261
  O    0.555978988  -1.634453327  -6.024950443
  N    1.334441315  -5.211203378  -8.814135256
  C    0.526216593  -6.345228961  -8.588857082
  C    1.383628827  -7.478483683  -8.665408748
  N    2.696116557  -7.016718357  -8.868757835
  C    2.660297150  -5.656022887  -8.941639387
  N   -0.830389298  -6.392214486  -8.388370807
  C   -1.342677178  -7.645370695  -8.228196628
  N   -0.584068734  -8.823674808  -8.385559855
  C    0.867872435  -8.823799266  -8.532447315
  N   -2.670515426  -7.775621471  -7.815531568
  H   -3.164983538  -6.876876948  -7.642448840
  H   -3.257525764  -8.467877801  -8.272253778
  O    1.439473492  -9.882726275  -8.549736280
  H    3.514796676  -4.976064790  -9.069970531
  H   -1.024614780  -9.749081180  -8.295755331
  P   -0.344600078  -1.681978696  -4.636244945
  O   -0.596696975  -0.041558804  -4.604039007
  C    0.108445625   0.721868194  -3.598562577
  H    0.805408623   1.381040358  -4.166987836
  H    0.687599909   0.072215504  -2.906998112
  C   -0.927658888   1.552731099  -2.846068422
  H   -0.582394515   1.779117715  -1.804878921
  O   -1.007300353   2.849161806  -3.522181499
  C   -2.345087479   3.364042156  -3.460997011
  H   -2.278278329   4.341613372  -2.918383285
  C   -2.384570447   1.017495115  -2.838075039
  H   -2.627613656   0.381317839  -3.724024241
  C   -3.233291056   2.296939393  -2.807788558
  H   -3.478629120   2.556921495  -1.749995010
  H   -4.219934277   2.173272348  -3.290776207
  O   -2.605065191   0.318040251  -1.609695513
  O    0.397702427  -2.298355027  -3.519210918
  O   -1.716378768  -2.207208388  -5.335493956
  N   -2.757862536   3.655842937  -4.868089412
  C   -2.672352509   2.859734445  -6.006422261
  C   -3.297445101   3.592253690  -7.070324087
  N   -3.747183975   4.830560195  -6.589150290
  C   -3.426287536   4.867988255  -5.298465637
  N   -2.139145874   1.595324923  -6.235604797
  C   -2.239940116   1.096443723  -7.542289360
  N   -2.822349729   1.729080462  -8.552110048
  C   -3.372300812   3.016533317  -8.378437590
  H   -1.803060584   0.087655145  -7.722488488
  N   -3.933033758   3.621854395  -9.438926554
  H   -3.962288062   3.176803143 -10.354745381
  H   -4.328448993   4.559613198  -9.359544148
  H   -3.618276704   5.688443396  -4.609928465
  P   -2.413667310  -1.331069120  -1.710967109
  O   -1.248297932  -1.449453214  -0.586411625
  C   -0.458638674  -2.676836466  -0.632240074
  H   -0.060492655  -2.849817199  -1.661633424
  H    0.377326556  -2.447110293   0.063559598
  C   -1.377345223  -3.775952653  -0.115166262
  H   -1.636959729  -3.642352192   0.963497295
  O   -2.632071019  -3.507796874  -0.831841458
  C   -3.178815727  -4.731020682  -1.413646618
  H   -4.243249402  -4.726740463  -1.064729508
  C   -1.003696213  -5.243523096  -0.424047086
  H   -0.200078978  -5.370050542  -1.190088354
  C   -2.334646874  -5.880455652  -0.865960370
  H   -2.171733351  -6.711641338  -1.580495048
  H   -2.823218054  -6.359149397   0.016957929
  O   -0.675108834  -5.906492567   0.813829029
  O   -2.072982300  -1.719127775  -3.123297369
  O   -3.926128782  -1.707255234  -1.244908040
  N   -3.155325926  -4.589052657  -2.892980403
  C   -2.078689888  -5.105791309  -3.688503008
  N   -2.365693414  -5.291897370  -5.057557285
  C   -3.574720880  -4.863652079  -5.702250351
  C   -4.447687417  -4.024139121  -4.859597360
  C   -4.251122942  -3.942334937  -3.521739725
  O   -1.000944435  -5.406649919  -3.209130778
  H   -1.668467307  -5.834253961  -5.611058395
  O   -3.762572211  -5.223397809  -6.845295279
  C   -5.554287176  -3.323832819  -5.563793725
  H   -6.173509881  -2.705775058  -4.900716430
  H   -5.169598025  -2.674569570  -6.366469196
  H   -6.233236138  -4.046719894  -6.053105707
  H   -4.912573210  -3.363653677  -2.857074394
  P    0.900321739  -5.941873029   1.261277137
  O    1.579792009  -6.399025374  -0.168803636
  C    3.030330621  -6.518455187  -0.180767877
  H    3.495990986  -6.240637770   0.785375347
  H    3.219825361  -7.601097435  -0.369060721
  C    3.577079756  -5.661985377  -1.327654539
  H    4.670042032  -5.448957461  -1.181849817
  O    3.554206808  -6.469043875  -2.543529031
  C    2.743821283  -5.871611875  -3.555068388
  H    3.398645421  -5.812193914  -4.462106619
  C    2.793744532  -4.364217617  -1.624799352
  H    2.034214903  -4.123677595  -0.850621441
  C    2.209368751  -4.535418287  -3.033197368
  H    1.094848693  -4.493493420  -3.034096887
  H    2.505092833  -3.689645787  -3.683111227
  O    3.787932482  -3.330582166  -1.593884603
  O    1.228940444  -6.637586960   2.493375099
  O    1.271558837  -4.319941554   1.201122442
  N    1.626285990  -6.839192785  -3.864076925
  C    0.879158584  -6.653261996  -5.097659481
  N   -0.136691904  -7.527286587  -5.408642247
  C   -0.504007994  -8.493161559  -4.502423084
  C    0.170615729  -8.643481831  -3.248109970
  C    1.217747204  -7.802222102  -2.953194538
  O    1.186153340  -5.703435657  -5.821523511
  N   -1.591794383  -9.251666550  -4.860426099
  H   -1.856622775 -10.073776756  -4.339837480
  H   -1.979069119  -9.144062137  -5.788070829
  H    2.785022129  -5.086925299  -6.198962466
  H    1.768423893  -7.858661343  -1.997259101
  H   -0.131845962  -9.410936014  -2.538851846
  H    3.395931044  -2.476821621  -1.872692545
  H   -2.477873346  -2.452628292  -4.687958141
  H   -4.055730642  -2.038055300  -0.300935222
  H    1.677966550  -3.908632346   2.009502567
  H    3.510101270  -7.623525772  -8.931358417
  H   -1.597782800   1.087129010  -5.499235014

