%mem=64gb
%nproc=28       
%Chk=snap_169.chk
# opt b3lyp/6-31g(d,p)  scf=(xqc, tight)  pop=min    

tetra snap_169 

2     1 
  O    3.161655855  -3.003018506  -4.000667553
  C    3.411727610  -3.050461525  -5.399970618
  H    3.656787943  -4.075094081  -5.732811334
  H    4.310500289  -2.407872739  -5.518731322
  C    2.224092483  -2.485847092  -6.202688980
  H    2.469806607  -1.519124505  -6.708216023
  O    1.976095497  -3.387731787  -7.323919930
  C    0.730503202  -4.059131481  -7.190930819
  H    0.208814629  -3.933229366  -8.177134905
  C    0.898325311  -2.381942841  -5.419226537
  H    1.055848287  -2.419309373  -4.314287291
  C   -0.004319396  -3.496815823  -5.973301198
  H   -1.011474900  -3.116051107  -6.266357808
  H   -0.224157690  -4.260131496  -5.195329177
  O    0.401539911  -1.064535591  -5.800071224
  N    1.066028821  -5.527068931  -7.074924776
  C    1.182855472  -6.387415445  -8.187772359
  C    1.731298289  -7.615524287  -7.709926696
  N    1.950596151  -7.473772238  -6.326127073
  C    1.561523160  -6.230575679  -5.959117629
  N    0.823389079  -6.126215396  -9.480297519
  C    1.043955721  -7.155667448 -10.360486697
  N    1.599391041  -8.399863997  -9.973617757
  C    1.977811052  -8.714777765  -8.604906644
  N    0.688026014  -6.960408615 -11.668650127
  H    0.323117913  -6.053896563 -11.956876838
  H    0.879739672  -7.631637135 -12.397593417
  O    2.432960347  -9.819560132  -8.411684842
  H    1.576485292  -5.799180128  -4.900843537
  H    1.751236689  -9.148435878 -10.665837972
  P   -0.813277964  -0.477539669  -4.879601276
  O   -1.037277408   1.038435388  -5.507783101
  C   -0.573665858   2.153935814  -4.711823409
  H   -0.195276541   2.866469283  -5.483650764
  H    0.264757212   1.859184272  -4.042247972
  C   -1.708173614   2.778734745  -3.908695827
  H   -1.276274949   3.393114437  -3.075862705
  O   -2.417581281   3.724015774  -4.786180005
  C   -3.778616606   3.867664841  -4.342859461
  H   -3.924526579   4.954702847  -4.128300154
  C   -2.849367095   1.878145788  -3.370001252
  H   -3.166069245   1.092320210  -4.100532783
  C   -3.988672181   2.895979139  -3.171461633
  H   -3.892312779   3.401138553  -2.184952487
  H   -4.984892444   2.418320135  -3.144012188
  O   -2.436530122   1.342212197  -2.123230683
  O   -0.488600236  -0.483264337  -3.420954370
  O   -2.037406905  -1.154580408  -5.716773755
  N   -4.667153770   3.503343356  -5.492359881
  C   -4.542096778   2.460883742  -6.407895469
  C   -5.796358544   2.358468290  -7.094842352
  N   -6.681568324   3.330704483  -6.605602851
  C   -6.018841980   3.997065498  -5.662841209
  N   -3.484132341   1.618433540  -6.729548323
  C   -3.734199829   0.634133027  -7.696553073
  N   -4.880414252   0.488744986  -8.349848205
  C   -5.974589088   1.335499241  -8.080753367
  H   -2.897128028  -0.068502687  -7.913618203
  N   -7.117953125   1.148572067  -8.765539668
  H   -7.214175803   0.402073752  -9.449253096
  H   -7.932218345   1.735947737  -8.587519467
  H   -6.394589444   4.830749984  -5.075843694
  P   -2.411175597  -0.330313723  -2.076647898
  O   -1.211603637  -0.462234065  -0.994250908
  C   -0.347122059  -1.615258271  -1.033295813
  H    0.304241640  -1.585688095  -1.933005159
  H    0.292831446  -1.437278806  -0.138806842
  C   -1.195136781  -2.879883316  -0.895040770
  H   -1.196192482  -3.269832118   0.151587046
  O   -2.568178905  -2.478609056  -1.196048929
  C   -3.323094756  -3.662032260  -1.677412114
  H   -3.960862204  -3.941555900  -0.799087427
  C   -0.920926506  -4.022769083  -1.897441255
  H   -0.513637017  -3.669247537  -2.870934163
  C   -2.281300161  -4.722953370  -2.032656179
  H   -2.422093456  -5.183263627  -3.038028325
  H   -2.337487484  -5.587787839  -1.332196937
  O   -0.011727529  -4.895998604  -1.191965725
  O   -2.688587882  -0.865505307  -3.463062924
  O   -3.736603722  -0.493929456  -1.108938281
  N   -4.216486543  -3.180909004  -2.758888643
  C   -3.911346512  -3.345746220  -4.144548521
  N   -4.676174357  -2.567443026  -5.051616985
  C   -5.532409929  -1.472574815  -4.669174978
  C   -5.877359586  -1.455903459  -3.245257088
  C   -5.222122238  -2.248895573  -2.363040584
  O   -3.085701855  -4.133262903  -4.574928298
  H   -4.555017417  -2.767830821  -6.057265621
  O   -5.830737872  -0.686437608  -5.545033171
  C   -6.948991109  -0.512683588  -2.821591054
  H   -7.822074914  -1.044524382  -2.409345176
  H   -6.589643730   0.186290404  -2.050333311
  H   -7.320918439   0.091422407  -3.665889739
  H   -5.429493098  -2.207985855  -1.282876334
  P    1.117647876  -5.643146371  -2.102902539
  O    2.426423898  -5.367993805  -1.167217333
  C    3.581819058  -6.225567341  -1.327244464
  H    3.719865467  -6.571796761  -2.373620392
  H    4.404140775  -5.517652913  -1.063976789
  C    3.503398618  -7.369837940  -0.313442196
  H    2.972899853  -7.049983392   0.625115654
  O    2.647622798  -8.437854248  -0.829236661
  C    3.323533470  -9.690110802  -0.907842356
  H    2.657339342 -10.392339527  -0.342379494
  C    4.873295928  -8.014573852   0.011460753
  H    5.729641147  -7.542221322  -0.513095492
  C    4.730708913  -9.512218204  -0.329930242
  H    5.528135635  -9.849287830  -1.016022338
  H    4.855850788 -10.118063999   0.595422460
  O    5.002480512  -7.830781234   1.418937152
  O    1.255581085  -5.042599147  -3.477647512
  O    0.669992736  -7.179815656  -2.065598661
  N    3.350847374 -10.143054089  -2.351799003
  C    3.036151836  -9.286281683  -3.475648828
  N    3.077572938  -9.796074157  -4.754838559
  C    3.439395104 -11.101860780  -4.979977876
  C    3.768904528 -11.969620990  -3.870191946
  C    3.710781011 -11.474801287  -2.600217516
  O    2.720650839  -8.109550824  -3.288401618
  N    3.470248631 -11.526199726  -6.268953425
  H    3.714884138 -12.474010743  -6.516393536
  H    3.206401474 -10.895577613  -7.033269209
  H    2.667145712  -3.809782955  -3.688739459
  H    3.946298623 -12.106919269  -1.729828606
  H    4.053977087 -13.006600141  -4.052965982
  H    5.927929505  -7.965988351   1.723179974
  H   -2.890875234  -1.356174950  -5.210499184
  H   -3.557657358  -0.531858724  -0.126420664
  H    1.451194555  -7.892561619  -2.078613418
  H    2.340729097  -8.219882519  -5.709713375
  H   -2.549483173   1.734419564  -6.277282933

