%mem=64gb
%nproc=28       
%Chk=snap_42.chk
# opt b3lyp/6-31g(d,p)  scf=(xqc, tight)  pop=min    

tetra snap_42 

2     1 
  O    1.989844876  -4.607161804  -7.541306966
  C    2.080436314  -3.396691633  -8.314636239
  H    3.025134880  -3.543599906  -8.885459102
  H    2.202618117  -2.536802738  -7.616642835
  C    0.903548038  -3.171387387  -9.262474778
  H    0.976406403  -2.155098410  -9.731060085
  O    1.053611045  -4.074965748 -10.408871247
  C   -0.129729578  -4.819573489 -10.636158184
  H   -0.269165505  -4.869057526 -11.745264505
  C   -0.517524258  -3.428829094  -8.693551414
  H   -0.523268246  -4.009387009  -7.732784583
  C   -1.252275199  -4.186609507  -9.810305446
  H   -1.851685522  -3.471536863 -10.420430413
  H   -1.985370758  -4.915580537  -9.419683243
  O   -1.220799792  -2.175247287  -8.537336864
  N    0.151369112  -6.224764192 -10.149802881
  C   -0.382424763  -7.409719133 -10.698576620
  C    0.123522610  -8.485374284  -9.917432795
  N    0.950270793  -7.933580464  -8.915462248
  C    0.956691280  -6.585243416  -9.061635959
  N   -1.229130557  -7.521957383 -11.765602510
  C   -1.580287497  -8.813308215 -12.084215931
  N   -1.117373154  -9.939948769 -11.368631866
  C   -0.225030288  -9.854501911 -10.212294843
  N   -2.442484719  -8.990869952 -13.135329153
  H   -2.749396366  -8.183561394 -13.674872561
  H   -2.711593417  -9.901331684 -13.478401844
  O    0.090900421 -10.881369994  -9.671903335
  H    1.522578019  -5.788849854  -8.404837533
  H   -1.400430763 -10.892583476 -11.642489978
  P   -0.844317788  -1.414817402  -7.119818727
  O   -2.083819683  -0.330913401  -6.970206960
  C   -1.722718906   1.064593743  -6.950685726
  H   -2.685951473   1.564705112  -7.184004842
  H   -0.990010653   1.321829248  -7.742965356
  C   -1.205157259   1.428954257  -5.549107858
  H   -0.109992046   1.211513110  -5.416641618
  O   -1.279593544   2.878636665  -5.406026717
  C   -2.201220206   3.255378241  -4.382326256
  H   -1.622913473   3.908959063  -3.680377103
  C   -2.048458723   0.814498264  -4.402525089
  H   -2.748921178   0.017559518  -4.746169917
  C   -2.767385704   1.998118192  -3.726690249
  H   -2.549423443   1.990475172  -2.631153041
  H   -3.865216680   1.894083560  -3.777526649
  O   -1.053222986   0.318059645  -3.495280810
  O    0.512810885  -0.847051345  -7.052352269
  O   -1.261290299  -2.551067164  -6.066566501
  N   -3.225541264   4.113059011  -5.062677047
  C   -3.010712968   5.421643117  -5.493168468
  C   -4.225788061   5.860489853  -6.112315837
  N   -5.159868531   4.814593921  -6.100818831
  C   -4.562233192   3.786376595  -5.497724125
  N   -1.904275088   6.265894205  -5.394424868
  C   -2.064944021   7.565250627  -5.919242780
  N   -3.174868187   8.017063030  -6.475778404
  C   -4.319230244   7.199762330  -6.611685401
  H   -1.188637893   8.250129889  -5.842651750
  N   -5.408630024   7.726769263  -7.190149285
  H   -5.420259291   8.691280229  -7.525970987
  H   -6.261784743   7.178484656  -7.307774285
  H   -4.995659598   2.805062074  -5.324247874
  P   -1.309201751  -1.095873803  -2.685891461
  O   -0.496063490  -0.651052230  -1.358363316
  C    0.038556830  -1.734590958  -0.549967750
  H    0.758164747  -2.352082628  -1.140870261
  H    0.598707256  -1.192219496   0.241075336
  C   -1.152382671  -2.517016065  -0.002152541
  H   -1.772200531  -1.943017427   0.727372489
  O   -2.034780655  -2.714049011  -1.166891658
  C   -2.302830958  -4.147382355  -1.383414314
  H   -3.418973252  -4.178829061  -1.448917535
  C   -0.785948473  -3.914659737   0.531844475
  H    0.299464524  -4.167651562   0.363189466
  C   -1.725167603  -4.894863908  -0.189353915
  H   -1.183853406  -5.832374654  -0.471035860
  H   -2.530709314  -5.237828966   0.497551592
  O   -1.106263916  -3.852817114   1.933196554
  O   -0.857466772  -2.245663178  -3.526524894
  O   -2.925577154  -0.936117473  -2.471113810
  N   -1.718065078  -4.557049211  -2.682679402
  C   -0.294551981  -4.542822348  -2.889369717
  N    0.142513495  -4.932672789  -4.189342736
  C   -0.717812875  -5.199691297  -5.280158530
  C   -2.154635013  -5.107532778  -5.005510731
  C   -2.598899051  -4.778418318  -3.766012137
  O    0.504756104  -4.265309203  -2.020808525
  H    1.163600522  -4.993429224  -4.318994496
  O   -0.194376420  -5.472822428  -6.363357309
  C   -3.066950958  -5.325644336  -6.161691331
  H   -2.701466978  -6.134007867  -6.814019816
  H   -4.088147866  -5.592338542  -5.860598964
  H   -3.129063144  -4.409896851  -6.775887081
  H   -3.670674265  -4.693132608  -3.543853366
  P   -0.369522982  -4.954575027   2.921263836
  O    0.026567366  -6.032496630   1.748839679
  C    1.159812143  -6.906712017   1.904114861
  H    1.220481286  -7.326587447   2.924887999
  H    0.903928648  -7.727040861   1.197597255
  C    2.460052116  -6.194719155   1.489994293
  H    2.916786219  -5.633869334   2.336710654
  O    3.405089046  -7.259658208   1.201310189
  C    3.634633552  -7.365434798  -0.219574136
  H    4.707810980  -7.668649530  -0.287974731
  C    2.364107580  -5.334075179   0.200511293
  H    1.318944943  -5.270709728  -0.212627329
  C    3.334550257  -5.986964402  -0.803069685
  H    2.879994680  -6.019968064  -1.815670794
  H    4.257664079  -5.389274593  -0.916720130
  O    2.663876520  -3.968488372   0.444887851
  O   -1.155598164  -5.351863579   4.080539305
  O    1.095246032  -4.276249926   3.253060555
  N    2.776132956  -8.486218507  -0.730505939
  C    1.454834777  -8.304690256  -1.380357596
  N    0.738327431  -9.439490639  -1.710454426
  C    1.204945917 -10.683939776  -1.420135817
  C    2.467999240 -10.880258373  -0.748832109
  C    3.203301530  -9.778385549  -0.413339467
  O    1.063184629  -7.174004124  -1.598881831
  N    0.428513336 -11.745275463  -1.812317587
  H    0.660059780 -12.692113129  -1.564197705
  H   -0.470966311 -11.585809573  -2.247360529
  H    1.219280213  -4.570277596  -6.889733214
  H    4.163001726  -9.878591395   0.117741298
  H    2.822104701 -11.881360525  -0.516337731
  H    3.537750991  -3.842999969   0.869379078
  H   -1.092578031  -2.375458250  -5.015214368
  H   -3.356823599  -1.459343370  -1.725211381
  H    1.230916927  -3.891729156   4.159984859
  H    1.431777258  -8.484788989  -8.213214479
  H   -1.006255938   5.924784692  -5.035064885

