%mem=64gb
%nproc=28       
%Chk=snap_157.chk
# opt b3lyp/6-31g(d,p)  scf=(xqc, tight)  pop=min    

tetra snap_157 

2     1 
  O    3.138082656  -4.095849455  -4.924787450
  C    3.387099123  -2.934809624  -5.729622411
  H    4.252115466  -3.244828947  -6.357551652
  H    3.702405312  -2.115663136  -5.053619797
  C    2.199586484  -2.512778541  -6.599440116
  H    2.292888145  -1.451182614  -6.941442436
  O    2.230863301  -3.265313910  -7.849422489
  C    1.106007223  -4.123657813  -7.972332194
  H    0.753841338  -4.013739242  -9.030701480
  C    0.826746835  -2.782880012  -5.947672364
  H    0.935853771  -3.200683111  -4.902711739
  C    0.098146981  -3.765250312  -6.876930866
  H   -0.814236895  -3.300016556  -7.308421624
  H   -0.262534729  -4.648218482  -6.302788531
  O    0.158876430  -1.502775463  -5.930361577
  N    1.620049755  -5.533531949  -7.820498019
  C    1.520524057  -6.551145488  -8.788518115
  C    2.162595466  -7.701797954  -8.241915562
  N    2.666000741  -7.351745378  -6.972992483
  C    2.342816830  -6.062305780  -6.730479657
  N    0.930855522  -6.482202460 -10.022909526
  C    1.004508043  -7.635269143 -10.761940690
  N    1.610823290  -8.825724232 -10.287399570
  C    2.227385822  -8.935719094  -8.977149979
  N    0.438376335  -7.634839914 -12.010599974
  H    0.037735251  -6.773829312 -12.378318572
  H    0.513328964  -8.415696346 -12.646942393
  O    2.693019928 -10.013861517  -8.676941908
  H    2.624386289  -5.439415357  -5.815285407
  H    1.632561466  -9.676307512 -10.869613156
  P   -0.857020537  -1.326550633  -4.632282077
  O   -1.155404355   0.289480033  -4.798663070
  C   -0.444680795   1.271297663  -4.015406917
  H    0.018494999   1.938286075  -4.779869969
  H    0.340333654   0.809520386  -3.385479729
  C   -1.457805001   2.045943983  -3.170103050
  H   -0.983751418   2.431468501  -2.232321866
  O   -1.855388401   3.238887831  -3.916327547
  C   -3.265213083   3.479591939  -3.786797771
  H   -3.359424387   4.536944018  -3.429789694
  C   -2.783884733   1.309459369  -2.858580375
  H   -3.040587845   0.552316176  -3.650370675
  C   -3.843692675   2.417348159  -2.847908381
  H   -3.984825165   2.813444874  -1.816779583
  H   -4.856253270   2.050244754  -3.133452229
  O   -2.639155749   0.715950941  -1.570236435
  O   -0.224978706  -1.897040293  -3.427505762
  O   -2.210265276  -1.781942293  -5.392338882
  N   -3.835341193   3.422622835  -5.170631105
  C   -3.838756471   2.391303632  -6.106505439
  C   -4.444225001   2.913469879  -7.298561362
  N   -4.799270069   4.256084978  -7.097405717
  C   -4.433973287   4.553680467  -5.853308684
  N   -3.423774703   1.063326270  -6.053897980
  C   -3.561736596   0.309734145  -7.231205698
  N   -4.122486300   0.748249981  -8.349302129
  C   -4.579007110   2.078795724  -8.451777851
  H   -3.184192652  -0.743061685  -7.186109818
  N   -5.103465071   2.486385145  -9.621346037
  H   -5.176333497   1.859812094 -10.420428207
  H   -5.441887518   3.441978083  -9.735690345
  H   -4.556390605   5.515506393  -5.359615070
  P   -2.701913028  -0.957006300  -1.604524478
  O   -1.559128542  -1.253897712  -0.497933503
  C   -0.817412146  -2.491048853  -0.678814954
  H   -0.065657007  -2.347485086  -1.492658727
  H   -0.281136554  -2.563797679   0.293230295
  C   -1.762419507  -3.671923073  -0.911796151
  H   -1.740604648  -4.392634617  -0.059201541
  O   -3.112177824  -3.106391045  -0.960620457
  C   -3.992924128  -4.069458300  -1.684186524
  H   -4.467846904  -4.665206822  -0.862679147
  C   -1.635420168  -4.420725865  -2.263492748
  H   -1.191626901  -3.792699244  -3.074208566
  C   -3.064116891  -4.891680775  -2.577630562
  H   -3.293785861  -4.816057603  -3.665611880
  H   -3.157391871  -5.981104221  -2.359217229
  O   -0.865356309  -5.613902269  -1.996001861
  O   -2.590349643  -1.395295802  -3.043148320
  O   -4.166035319  -1.043075227  -0.879312719
  N   -5.042124772  -3.250731031  -2.333040595
  C   -4.855357762  -2.696387132  -3.633559779
  N   -5.460456846  -1.452075711  -3.897132526
  C   -6.253815079  -0.706866565  -2.943751412
  C   -6.661005730  -1.501658829  -1.773056353
  C   -6.023244079  -2.659085702  -1.472270546
  O   -4.221073297  -3.270408649  -4.516705802
  H   -5.276554133  -1.026654340  -4.812982407
  O   -6.452157516   0.457391793  -3.209226963
  C   -7.754343012  -0.945191176  -0.932090823
  H   -8.175054016  -0.015542456  -1.355091361
  H   -8.597301024  -1.647345487  -0.830023840
  H   -7.408189877  -0.696737189   0.082991045
  H   -6.237038330  -3.224460864  -0.556272203
  P    0.581314033  -5.721429756  -2.749843514
  O    1.541739189  -4.959104937  -1.653641282
  C    2.962846415  -5.202688767  -1.791213928
  H    3.261280028  -5.551691064  -2.808030102
  H    3.399050681  -4.190685816  -1.628863605
  C    3.392772956  -6.162117462  -0.680457936
  H    2.879003592  -5.922943887   0.282080093
  O    2.936073840  -7.525019279  -0.951666398
  C    4.055614502  -8.417590827  -1.204167291
  H    3.999918904  -9.154659898  -0.362555923
  C    4.941265500  -6.233135719  -0.551516396
  H    5.471717593  -5.363728642  -1.009606549
  C    5.328383123  -7.572578338  -1.199563301
  H    5.722186997  -7.402768915  -2.227414591
  H    6.163422359  -8.060935862  -0.659825285
  O    5.335135550  -6.132221455   0.801736714
  O    0.689850749  -5.104008279  -4.099642947
  O    0.838758175  -7.308424288  -2.667413098
  N    3.773500154  -9.115414646  -2.487353901
  C    3.736923572  -8.409863067  -3.773885723
  N    3.507260265  -9.154594556  -4.916654522
  C    3.371457162 -10.517896122  -4.870101938
  C    3.407386410 -11.219136575  -3.604068752
  C    3.594898669 -10.506593784  -2.457519155
  O    3.891872197  -7.201459474  -3.794005145
  N    3.195588786 -11.163618922  -6.053578953
  H    3.110294992 -12.168049926  -6.112651932
  H    3.176899229 -10.647612309  -6.940277823
  H    2.255233693  -4.040343402  -4.436257172
  H    3.618873617 -10.999089105  -1.471909816
  H    3.285528560 -12.302818109  -3.574892361
  H    5.021689887  -6.884947833   1.349527221
  H   -2.963862673  -2.216698480  -4.832897786
  H   -4.242843103  -0.624075138   0.030419966
  H    1.680973656  -7.640115492  -2.152571532
  H    3.159416274  -8.017180892  -6.316997828
  H   -2.815233198   0.710534083  -5.268045686

