%mem=64gb
%nproc=28       
%Chk=snap_69.chk
# opt b3lyp/6-31g(d,p)  scf=(xqc, tight)  pop=min    

tetra snap_69 

2     1 
  O    1.078121598  -6.632466830  -6.955107446
  C    1.933080568  -5.565871596  -7.377660220
  H    2.283724661  -5.896854371  -8.379511438
  H    2.789855884  -5.477332871  -6.685738791
  C    1.174000312  -4.235528945  -7.503650212
  H    1.856206082  -3.354460297  -7.463360170
  O    0.634090458  -4.175073950  -8.863822998
  C   -0.768298392  -4.370599896  -8.857158355
  H   -1.154709158  -3.779888164  -9.726720780
  C   -0.031628391  -4.073504810  -6.547131722
  H   -0.089874160  -4.903255571  -5.804768297
  C   -1.269906923  -3.987207645  -7.467068325
  H   -1.679851428  -2.953279517  -7.485089655
  H   -2.109486470  -4.607521419  -7.085637850
  O    0.218762144  -2.841791547  -5.833221632
  N   -1.030164120  -5.828107706  -9.172734706
  C   -1.065993468  -6.366213829 -10.482125624
  C   -1.091680267  -7.782359383 -10.348232374
  N   -1.051822691  -8.084714476  -8.972481698
  C   -1.005425262  -6.916100489  -8.280796647
  N   -1.118370444  -5.679144423 -11.660394419
  C   -1.181484005  -6.471471418 -12.784792652
  N   -1.187113425  -7.882420927 -12.741193805
  C   -1.144508825  -8.651993923 -11.498371605
  N   -1.252170691  -5.836467186 -13.996912918
  H   -1.232540776  -4.819673238 -14.033453229
  H   -1.271945470  -6.330637903 -14.876682943
  O   -1.160070574  -9.851705866 -11.578047606
  H   -0.971807527  -6.816730357  -7.171901150
  H   -1.221123732  -8.437456834 -13.609013581
  P   -0.820482663  -2.450242073  -4.604343969
  O   -1.466229732  -1.067245081  -5.267497541
  C   -1.024148084   0.178839139  -4.714150707
  H   -1.133185877   0.872942740  -5.573495696
  H    0.038587583   0.155010160  -4.403267747
  C   -1.950140355   0.574520125  -3.547171945
  H   -1.558404683   0.252248533  -2.550214581
  O   -1.917806144   2.029311158  -3.411232989
  C   -3.109611454   2.617832987  -3.936318025
  H   -3.339207262   3.482926881  -3.262871114
  C   -3.430184989   0.191040992  -3.817999762
  H   -3.545680527  -0.502315259  -4.688859228
  C   -4.172236815   1.528667799  -4.014865157
  H   -4.918929346   1.640445904  -3.183702595
  H   -4.783590439   1.532603003  -4.932921983
  O   -4.077279841  -0.397046876  -2.676654020
  O   -0.097373729  -2.232897841  -3.332491460
  O   -1.947137352  -3.567491445  -4.953063361
  N   -2.685746288   3.162220891  -5.277379765
  C   -1.406965102   3.650300141  -5.539238748
  C   -1.364799171   3.989542236  -6.929117482
  N   -2.606759062   3.703882751  -7.514295746
  C   -3.377990091   3.214366346  -6.540993605
  N   -0.298920998   3.824679525  -4.710059778
  C    0.844592531   4.375326779  -5.314467815
  N    0.930022211   4.706950154  -6.593518654
  C   -0.158050939   4.534523710  -7.476337212
  H    1.734218565   4.538176808  -4.663670697
  N    0.009118802   4.875016123  -8.763748660
  H    0.887613059   5.271282102  -9.100545072
  H   -0.751402521   4.775721734  -9.437266998
  H   -4.414210598   2.901937307  -6.640516187
  P   -3.381654743  -1.758544907  -2.040596309
  O   -2.508270757  -1.011322580  -0.889072120
  C   -1.343767707  -1.756690561  -0.427443222
  H   -0.693666232  -2.036265164  -1.288526964
  H   -0.817764792  -1.010778773   0.211695729
  C   -1.870047500  -2.943293964   0.365847779
  H   -2.332251768  -2.646933017   1.336167777
  O   -2.983034420  -3.460345084  -0.454902501
  C   -2.952549684  -4.928314013  -0.489922273
  H   -3.989954599  -5.213052629  -0.184322525
  C   -0.902928438  -4.141056936   0.524981951
  H   -0.148632117  -4.185258315  -0.302135874
  C   -1.859995888  -5.349441807   0.488589919
  H   -1.337453349  -6.288162979   0.218402246
  H   -2.265262218  -5.539311715   1.509028752
  O   -0.284638683  -4.136825557   1.804372817
  O   -2.599949109  -2.476411276  -3.097269005
  O   -4.747055092  -2.450439674  -1.510622457
  N   -2.733764349  -5.357553314  -1.900786285
  C   -1.434988879  -5.690227960  -2.413842221
  N   -1.390405129  -6.171509507  -3.739683790
  C   -2.502477409  -6.243521411  -4.628767504
  C   -3.779340190  -5.790170516  -4.051813115
  C   -3.859161001  -5.378546222  -2.760879661
  O   -0.415656062  -5.605661795  -1.750534947
  H   -0.441771036  -6.454749485  -4.085523437
  O   -2.296304147  -6.642014745  -5.763779637
  C   -4.951316421  -5.785215658  -4.968927095
  H   -4.943456687  -4.896560211  -5.619903529
  H   -4.941237506  -6.664289884  -5.636377067
  H   -5.916279601  -5.801478040  -4.442842856
  H   -4.806356225  -5.027178832  -2.321135560
  P    1.133508036  -3.278556205   1.975885968
  O    2.357240895  -4.291556801   1.570033808
  C    2.395100923  -5.067634412   0.365078911
  H    3.029840801  -5.935951446   0.667166144
  H    1.404107123  -5.449723975   0.063218019
  C    3.113950225  -4.245925140  -0.712167616
  H    3.757147520  -3.453536953  -0.251603530
  O    4.074127112  -5.129148548  -1.365501276
  C    3.807278194  -5.227583803  -2.773003060
  H    4.812091242  -5.281775457  -3.256617623
  C    2.210487238  -3.686970067  -1.836868921
  H    1.170001746  -4.093944548  -1.836690192
  C    2.958748467  -4.014292158  -3.137636648
  H    2.267369144  -4.168170474  -3.995673348
  H    3.605116677  -3.160206750  -3.432430825
  O    2.153941693  -2.264852346  -1.620680447
  O    1.299105910  -2.682210203   3.286592205
  O    0.937609913  -2.295874464   0.672903005
  N    3.135725105  -6.575817054  -2.940094732
  C    1.948644248  -6.817580918  -3.721425483
  N    1.393946846  -8.080330981  -3.769417605
  C    1.961140006  -9.106197327  -3.061194932
  C    3.135900945  -8.887382407  -2.252084852
  C    3.681112452  -7.635547551  -2.202901072
  O    1.437028578  -5.899774549  -4.379357855
  N    1.363134229 -10.330902047  -3.152364510
  H    1.738370772 -11.143492858  -2.688563403
  H    0.544323012 -10.464247545  -3.731897993
  H    1.051725127  -6.688592278  -5.955207455
  H    4.566640941  -7.404626055  -1.583577006
  H    3.578794361  -9.707828077  -1.688236853
  H    1.440429020  -1.889747128  -2.226064100
  H   -2.696062552  -3.682458051  -4.236511132
  H   -4.853197171  -2.544125681  -0.507329827
  H    1.696832625  -2.107814043   0.009602122
  H   -1.041557720  -9.028842994  -8.599420862
  H   -0.340803136   3.512705757  -3.726484893

