%mem=64gb
%nproc=28       
%Chk=snap_162.chk
# opt b3lyp/6-31g(d,p)  scf=(xqc, tight)  pop=min    

tetra snap_162 

2     1 
  O    3.351424943  -4.306754973  -4.404942628
  C    3.719290282  -3.046480363  -4.981582429
  H    4.676860297  -3.280042208  -5.499876884
  H    3.916410815  -2.337322315  -4.152740938
  C    2.694340737  -2.480168645  -5.967058834
  H    2.906473471  -1.404473085  -6.203992718
  O    2.858161324  -3.133860425  -7.260225839
  C    1.715088022  -3.902795983  -7.607061221
  H    1.493299750  -3.650964051  -8.676355039
  C    1.219737798  -2.675337948  -5.547917506
  H    1.118586799  -3.063926563  -4.503124479
  C    0.605163724  -3.619421181  -6.591285256
  H   -0.285047872  -3.163095255  -7.079536048
  H    0.212375554  -4.537331287  -6.094686459
  O    0.656658862  -1.345510159  -5.656496693
  N    2.138652551  -5.348568478  -7.566515827
  C    2.015179107  -6.275545250  -8.618092689
  C    2.511540683  -7.519823520  -8.126585598
  N    2.954947558  -7.314284011  -6.804666339
  C    2.731119822  -6.022430158  -6.479239501
  N    1.523367797  -6.057490498  -9.877398800
  C    1.544948432  -7.153683553 -10.701750939
  N    1.997958785  -8.430866120 -10.284730130
  C    2.509416888  -8.696574566  -8.952341977
  N    1.076784975  -7.004661351 -11.981379421
  H    0.789119164  -6.083094940 -12.305418724
  H    1.120938949  -7.740861783 -12.671734655
  O    2.846366396  -9.836180016  -8.711240818
  H    3.001280766  -5.489507580  -5.499823856
  H    1.978394969  -9.235398978 -10.929471196
  P   -0.708060481  -1.090691539  -4.775804449
  O   -1.169666005   0.357821211  -5.435303932
  C   -0.558329444   1.557636672  -4.897709125
  H   -0.428885592   2.200319441  -5.801513741
  H    0.438986221   1.348490003  -4.459999137
  C   -1.490482821   2.223495573  -3.886939087
  H   -0.904458268   2.743167924  -3.087794246
  O   -2.221642082   3.276642554  -4.599957748
  C   -3.558841375   3.395803502  -4.086561574
  H   -3.672220243   4.462675636  -3.770370011
  C   -2.606052601   1.344281948  -3.269663363
  H   -2.974239467   0.569245677  -3.993849366
  C   -3.734045784   2.346629401  -2.982721245
  H   -3.624672597   2.783681333  -1.966021324
  H   -4.739372094   1.871617735  -2.974389165
  O   -2.081037241   0.779831195  -2.071164511
  O   -0.389811272  -1.088375748  -3.313331919
  O   -1.724607407  -2.042889330  -5.571962386
  N   -4.490233911   3.160454768  -5.235680511
  C   -4.544197231   2.107340096  -6.143338838
  C   -5.727364224   2.299161598  -6.934769763
  N   -6.390801453   3.460995188  -6.513174426
  C   -5.666382601   3.960447136  -5.514575767
  N   -3.706672368   1.020810597  -6.383981421
  C   -4.085259718   0.141207937  -7.405194502
  N   -5.191328449   0.252980644  -8.127572381
  C   -6.067448257   1.343839662  -7.940579283
  H   -3.401670776  -0.717762001  -7.600390461
  N   -7.163433097   1.420283770  -8.717396043
  H   -7.364396568   0.719673349  -9.427195108
  H   -7.826266754   2.187904931  -8.609544847
  H   -5.886141273   4.862485567  -4.949112601
  P   -2.279499904  -0.873554172  -1.998878015
  O   -1.143066978  -1.320589866  -0.930510635
  C   -0.540209140  -2.620183026  -1.125044367
  H    0.126398352  -2.600223815  -2.012365279
  H    0.095122180  -2.702909317  -0.214133694
  C   -1.629654009  -3.696110156  -1.164482153
  H   -1.617493085  -4.324608606  -0.241754333
  O   -2.897681318  -2.970006765  -1.170899030
  C   -3.950159427  -3.850555319  -1.738301734
  H   -4.509581036  -4.221245885  -0.843013614
  C   -1.726687777  -4.586711126  -2.428692520
  H   -1.364296952  -4.100442022  -3.362639628
  C   -3.216555920  -4.953807924  -2.503488271
  H   -3.556474396  -5.076517919  -3.558075770
  H   -3.385618315  -5.954129625  -2.043571852
  O   -1.033245110  -5.825162648  -2.153239665
  O   -2.625360965  -1.389426301  -3.391170922
  O   -3.607578936  -0.793281360  -1.020434811
  N   -4.847747724  -2.968758543  -2.522759311
  C   -4.540477694  -2.627965974  -3.874132347
  N   -5.170679222  -1.483712428  -4.411973086
  C   -5.939461359  -0.541708181  -3.645242283
  C   -6.301732381  -1.014059163  -2.304078969
  C   -5.730421027  -2.126319574  -1.780258123
  O   -3.852313280  -3.341465696  -4.604379514
  H   -4.922091753  -1.228054553  -5.370476537
  O   -6.165140206   0.527003102  -4.178002425
  C   -7.279583248  -0.188868673  -1.544071234
  H   -6.807206104   0.305301878  -0.679997812
  H   -7.720142743   0.610286825  -2.165001125
  H   -8.124075124  -0.786590292  -1.166715440
  H   -5.938282740  -2.452063407  -0.752612525
  P    0.498232713  -5.911924381  -2.715591755
  O    1.340564186  -5.335884243  -1.426951146
  C    2.748121773  -5.678682741  -1.382282724
  H    3.173083040  -5.961256224  -2.374417641
  H    3.218485713  -4.722536285  -1.058153642
  C    2.939998680  -6.771108962  -0.330130162
  H    2.311029267  -6.587277926   0.573465879
  O    2.432114617  -8.052929225  -0.818595203
  C    3.520020512  -9.001620783  -1.031161457
  H    3.317786030  -9.804951773  -0.276567903
  C    4.445353348  -6.991300798  -0.001184004
  H    5.091285045  -6.112902144  -0.243023056
  C    4.830003940  -8.254013859  -0.790034992
  H    5.335264902  -7.971542785  -1.743196288
  H    5.578983519  -8.864623385  -0.246790643
  O    4.640688351  -7.117762003   1.391961231
  O    0.776252352  -5.076274443  -3.919965404
  O    0.716343393  -7.494416420  -2.847866775
  N    3.339504829  -9.549922329  -2.399080610
  C    3.536073948  -8.739491681  -3.610028619
  N    3.360643079  -9.353222596  -4.836063359
  C    3.044179385 -10.683847206  -4.933878098
  C    2.828187019 -11.481835831  -3.745371242
  C    2.972654047 -10.899127671  -2.522855739
  O    3.823148103  -7.560684829  -3.491439935
  N    2.930693001 -11.206120034  -6.183113507
  H    2.711603206 -12.178994699  -6.342005956
  H    3.091257245 -10.628342923  -7.015829523
  H    2.422695029  -4.285342724  -4.009537920
  H    2.810139819 -11.465968789  -1.592347597
  H    2.554520296 -12.534071636  -3.834987872
  H    4.212690823  -7.918534184   1.768926491
  H   -2.560013152  -2.418160154  -5.056072039
  H   -3.465155692  -1.053294318  -0.065921140
  H    1.403117611  -7.952306362  -2.200615960
  H    3.326345370  -8.072505351  -6.174044708
  H   -2.818347119   0.884424043  -5.847837241

