%mem=64gb
%nproc=28       
%Chk=snap_75.chk
# opt b3lyp/6-31g(d,p)  scf=(xqc, tight)  pop=min    

tetra snap_75 

2     1 
  O    2.658416821  -5.623729362  -6.887587818
  C    2.732569930  -4.298925514  -7.424528904
  H    3.338430510  -4.451604523  -8.349153374
  H    3.298086614  -3.661108649  -6.718795014
  C    1.385831603  -3.667667783  -7.785473645
  H    1.516612382  -2.574281300  -8.005042411
  O    0.961843933  -4.213370480  -9.073227089
  C   -0.315608611  -4.826859037  -8.984788671
  H   -0.865855411  -4.528737547  -9.913430457
  C    0.207477007  -3.863575698  -6.797732026
  H    0.461678573  -4.502541432  -5.921860422
  C   -0.938415071  -4.437217869  -7.646138088
  H   -1.747141884  -3.683332723  -7.783365957
  H   -1.463117727  -5.284095966  -7.144591751
  O   -0.068429981  -2.515922978  -6.367803695
  N   -0.087224898  -6.317864790  -9.060873469
  C   -0.757422162  -7.222377245  -9.912355528
  C   -0.254659470  -8.518720272  -9.604942764
  N    0.710267270  -8.375786386  -8.587413014
  C    0.806648114  -7.059227676  -8.275778321
  N   -1.690798577  -6.934941213 -10.868772191
  C   -2.149942948  -8.028146277 -11.565904613
  N   -1.715908136  -9.349080264 -11.315381812
  C   -0.726585104  -9.694568652 -10.296247264
  N   -3.082323731  -7.805304255 -12.546173400
  H   -3.384350652  -6.854409825 -12.745042932
  H   -3.444027166  -8.537538592 -13.138856652
  O   -0.435798722 -10.854564533 -10.165600785
  H    1.540279339  -6.557689985  -7.535244589
  H   -2.095328145 -10.140180299 -11.856444553
  P   -1.012862901  -2.280995016  -5.025356715
  O   -1.659269840  -0.823776548  -5.476436752
  C   -0.989791794   0.351681984  -4.998927579
  H   -1.243542902   1.101435051  -5.779395426
  H    0.109583657   0.229580347  -4.954736517
  C   -1.584640235   0.744529791  -3.634088958
  H   -1.044874806   0.278826652  -2.769659398
  O   -1.313914869   2.169953648  -3.440755238
  C   -2.528119284   2.911883642  -3.256627966
  H   -2.444731835   3.384628016  -2.242874591
  C   -3.123443393   0.555358419  -3.589184101
  H   -3.515550458  -0.003576014  -4.477592991
  C   -3.713249447   1.970008639  -3.457040330
  H   -4.409644659   1.986565811  -2.581286363
  H   -4.340779086   2.220385695  -4.334174266
  O   -3.566600706  -0.102293501  -2.393505196
  O   -0.160618987  -2.264029628  -3.813409916
  O   -2.173079090  -3.350945516  -5.389121814
  N   -2.494403929   4.008938123  -4.281604709
  C   -1.418438291   4.398437383  -5.067279114
  C   -1.849094379   5.534171929  -5.829639184
  N   -3.177816311   5.838323943  -5.503253077
  C   -3.554387186   4.943903163  -4.590146561
  N   -0.126091262   3.888751755  -5.190293050
  C    0.717853491   4.554357196  -6.097990333
  N    0.361308897   5.598762988  -6.828084434
  C   -0.930726839   6.162819974  -6.730273866
  H    1.753267456   4.160134472  -6.208328686
  N   -1.211974763   7.241799026  -7.476622510
  H   -0.519407013   7.655163725  -8.102201650
  H   -2.128552775   7.690034471  -7.431389165
  H   -4.523009154   4.890276568  -4.099151830
  P   -3.048313815  -1.653741168  -2.120637268
  O   -1.869485417  -1.191216297  -1.090289113
  C   -0.835068116  -2.173473058  -0.819414022
  H   -0.396964004  -2.542927474  -1.777729933
  H   -0.069296353  -1.591020887  -0.260253618
  C   -1.495035045  -3.252735127   0.026491456
  H   -1.813492913  -2.883702902   1.029823294
  O   -2.749044464  -3.516068423  -0.696611061
  C   -2.942087077  -4.953880398  -0.901407057
  H   -3.990391628  -5.116477253  -0.546681834
  C   -0.756130610  -4.604373065   0.117119096
  H    0.063300514  -4.711363548  -0.656677617
  C   -1.867844824  -5.650378560  -0.064586712
  H   -1.474622728  -6.584899034  -0.513665403
  H   -2.257392578  -5.957846562   0.933321739
  O   -0.258511186  -4.783967566   1.457983718
  O   -2.635907185  -2.320985225  -3.395020536
  O   -4.425101981  -2.185096218  -1.449462511
  N   -2.869945246  -5.240667178  -2.357456720
  C   -1.635705774  -5.591885026  -3.000030156
  N   -1.732441071  -6.088337267  -4.311479112
  C   -2.936513579  -6.155144435  -5.088545135
  C   -4.128712407  -5.622345372  -4.400142027
  C   -4.070951698  -5.200378494  -3.112975881
  O   -0.554900394  -5.493531922  -2.442932127
  H   -0.846423385  -6.480255142  -4.718852106
  O   -2.845287418  -6.595921759  -6.214948547
  C   -5.384213469  -5.573157451  -5.198185005
  H   -5.663818040  -4.541175549  -5.459346468
  H   -5.283218502  -6.124245151  -6.151545293
  H   -6.235838826  -6.025721215  -4.667961156
  H   -4.952156738  -4.794103097  -2.594281585
  P    1.309821019  -4.367169469   1.704208759
  O    1.952039244  -5.008306588   0.327395354
  C    3.337929771  -4.711538483   0.032283494
  H    3.787972199  -4.012485050   0.762552202
  H    3.860955894  -5.691727254   0.104763656
  C    3.427152813  -4.152554135  -1.393736705
  H    4.193853012  -3.340718700  -1.460112741
  O    3.973376844  -5.220940574  -2.238603544
  C    3.168146551  -5.441982487  -3.400490574
  H    3.897546095  -5.519950503  -4.242834937
  C    2.104364039  -3.714150237  -2.057034494
  H    1.196253852  -4.067261328  -1.502169660
  C    2.149699158  -4.308135054  -3.476070183
  H    1.130121007  -4.640339620  -3.774764044
  H    2.448368950  -3.535106991  -4.208069732
  O    2.123272343  -2.288802906  -2.079621584
  O    1.906109241  -4.668684872   2.996061584
  O    1.253389321  -2.762930894   1.291387331
  N    2.504087470  -6.795627458  -3.241558651
  C    1.420794960  -7.201081600  -4.117735706
  N    0.801621995  -8.407501236  -3.932550684
  C    1.184245956  -9.218949501  -2.889296495
  C    2.250223904  -8.838062454  -2.002204514
  C    2.874850251  -7.633309706  -2.193328218
  O    1.079361445  -6.424344819  -5.030055132
  N    0.494718738 -10.388509742  -2.734372955
  H    0.750292268 -11.067746184  -2.033768387
  H   -0.237793331 -10.647089530  -3.384589279
  H    2.243373526  -5.645667666  -5.966394350
  H    3.695288783  -7.285187586  -1.541428704
  H    2.554417554  -9.494173203  -1.187588406
  H    1.376979733  -1.955881300  -2.656056950
  H   -2.872547992  -3.517352509  -4.645509149
  H   -4.433810799  -2.319805445  -0.449271187
  H    1.628577515  -2.105153708   1.929706632
  H    1.219091223  -9.151554551  -8.176639206
  H    0.165433396   3.109690103  -4.578070643

