%mem=64gb
%nproc=28       
%Chk=snap_116.chk
# opt b3lyp/6-31g(d,p)  scf=(xqc, tight)  pop=min    

tetra snap_116 

2     1 
  O    3.059711722  -4.720056227  -7.196956069
  C    2.983024281  -3.297356515  -7.200736089
  H    3.754884398  -3.017032099  -7.952706418
  H    3.286695339  -2.900466821  -6.213398054
  C    1.610586641  -2.758249680  -7.619471789
  H    1.650321461  -1.653049464  -7.797604204
  O    1.286637554  -3.298256227  -8.940960678
  C    0.175169463  -4.177226138  -8.861445252
  H   -0.367144492  -4.080036368  -9.833179132
  C    0.416742771  -3.108542168  -6.693765610
  H    0.703970935  -3.716088280  -5.796571578
  C   -0.600128229  -3.824120178  -7.595343497
  H   -1.462805057  -3.158141003  -7.832418192
  H   -1.079053866  -4.697773826  -7.102666835
  O   -0.078855008  -1.808904832  -6.295416788
  N    0.758180272  -5.579108737  -8.812302344
  C    0.138262280  -6.755698493  -8.338857944
  C    1.094760302  -7.805257514  -8.456121660
  N    2.290509684  -7.242365254  -8.935247230
  C    2.085817042  -5.909333161  -9.133552291
  N   -1.138308664  -6.891257430  -7.885431739
  C   -1.496573321  -8.167624855  -7.521879044
  N   -0.625316029  -9.273873619  -7.636373564
  C    0.770148458  -9.146638232  -8.033665869
  N   -2.756334954  -8.336828678  -7.011751313
  H   -3.381532362  -7.513484138  -6.993491690
  H   -3.174466989  -9.244253828  -6.872370102
  O    1.448254045 -10.147805986  -7.995918614
  H    2.820970013  -5.172246145  -9.480480375
  H   -0.925231125 -10.206243849  -7.325644838
  P   -1.006204639  -1.766240682  -4.924479092
  O   -1.157715217  -0.104667017  -4.899620784
  C   -0.411775508   0.558127675  -3.851248378
  H    0.231753434   1.298379293  -4.381407213
  H    0.248776680  -0.135455751  -3.288490061
  C   -1.397574459   1.271659972  -2.918352701
  H   -1.161198159   1.071700096  -1.838445951
  O   -1.124636783   2.695723333  -3.080909624
  C   -2.331218497   3.449271476  -3.215712459
  H   -2.290836094   4.234445845  -2.415998493
  C   -2.910351016   1.072341246  -3.215353329
  H   -3.112270973   0.574527838  -4.194344277
  C   -3.513181437   2.482697602  -3.129837953
  H   -4.050969379   2.581915130  -2.151600741
  H   -4.300548132   2.662661055  -3.884884094
  O   -3.556220868   0.332519415  -2.172108566
  O   -0.291088702  -2.363625923  -3.775358641
  O   -2.378231372  -2.291637001  -5.602785513
  N   -2.250588051   4.145322131  -4.536864251
  C   -2.078945849   3.620734725  -5.815133628
  C   -2.026987544   4.739375196  -6.712713609
  N   -2.148570898   5.934294722  -5.988270453
  C   -2.271369800   5.584114492  -4.710914287
  N   -1.985968691   2.317391128  -6.300293889
  C   -1.820363304   2.178026199  -7.690070363
  N   -1.775329889   3.180590695  -8.553017956
  C   -1.870161067   4.520466283  -8.118074208
  H   -1.731670576   1.136856305  -8.074806506
  N   -1.806161227   5.497385842  -9.036599952
  H   -1.695498896   5.291374330 -10.029125329
  H   -1.866417974   6.479782427  -8.763474865
  H   -2.386161112   6.257968891  -3.863348990
  P   -3.126361964  -1.267807502  -2.042517346
  O   -1.979610469  -0.973010771  -0.921683553
  C   -1.004881788  -2.020629187  -0.684630533
  H   -0.491404476  -2.289539179  -1.642682802
  H   -0.278562950  -1.536055198   0.002846556
  C   -1.746975268  -3.177998428  -0.033823092
  H   -2.057370986  -2.966739004   1.017455017
  O   -2.997228481  -3.253064697  -0.802045424
  C   -3.291329930  -4.644648592  -1.176172966
  H   -4.345838061  -4.777450047  -0.823328577
  C   -1.086432215  -4.566395140  -0.158399506
  H   -0.312268061  -4.602788199  -0.977390945
  C   -2.269704082  -5.509658982  -0.449817698
  H   -1.944783618  -6.416116473  -1.013056099
  H   -2.689148705  -5.920441818   0.495988683
  O   -0.491929391  -4.808917264   1.117263610
  O   -2.682717226  -1.802327721  -3.370570264
  O   -4.572535734  -1.797749475  -1.535003360
  N   -3.266433746  -4.730701756  -2.659597825
  C   -2.122961409  -5.206163877  -3.391762478
  N   -2.338906349  -5.455072259  -4.768519945
  C   -3.569937161  -5.201019724  -5.463958486
  C   -4.582094264  -4.479142727  -4.680059266
  C   -4.426759831  -4.296585174  -3.346391262
  O   -1.051041155  -5.435968943  -2.869189063
  H   -1.562783817  -5.903799342  -5.293742760
  O   -3.667996384  -5.604397124  -6.605171084
  C   -5.792283860  -4.018618739  -5.414936999
  H   -6.025039801  -2.962523716  -5.219792226
  H   -5.676556307  -4.128841714  -6.508887425
  H   -6.680959239  -4.611818221  -5.140948502
  H   -5.201456620  -3.802865387  -2.734303016
  P    0.561337425  -6.099580536   1.177871772
  O    1.939749450  -5.382431496   0.631547493
  C    2.564320575  -5.978985248  -0.530007915
  H    3.487996142  -6.470512562  -0.152434624
  H    1.927335267  -6.737138476  -1.030718939
  C    2.919512239  -4.795160094  -1.440503488
  H    3.500684864  -4.011567436  -0.896041266
  O    3.842414417  -5.325115378  -2.445455164
  C    3.261416867  -5.284483238  -3.754803418
  H    4.121370498  -5.063816221  -4.432776627
  C    1.739284718  -4.181030255  -2.222279918
  H    0.759234839  -4.696385916  -2.037636502
  C    2.152520508  -4.240618910  -3.702872717
  H    1.272533519  -4.457131825  -4.352749590
  H    2.536996134  -3.250412086  -4.019972820
  O    1.622116792  -2.829054271  -1.775701485
  O    0.134576326  -7.309080041   0.472404395
  O    0.795133774  -6.129009855   2.777883225
  N    2.773414045  -6.686515478  -4.059704541
  C    1.735812883  -6.979757238  -5.044093296
  N    1.472144620  -8.290323583  -5.361260343
  C    2.123080911  -9.309729815  -4.707502187
  C    3.089220845  -9.039349785  -3.675679235
  C    3.404836739  -7.739419503  -3.396231620
  O    1.178614180  -6.029681800  -5.605627636
  N    1.813080583 -10.590105294  -5.079767027
  H    2.326685209 -11.377671034  -4.709187673
  H    1.308029963 -10.750220583  -5.946030087
  H    2.463544827  -5.129621296  -6.505533199
  H    4.176826970  -7.471175074  -2.651572155
  H    3.570738662  -9.856914281  -3.139789168
  H    0.957520147  -2.352970350  -2.355916261
  H   -3.144989493  -2.514280102  -4.944352571
  H   -4.703336745  -1.917100621  -0.541774514
  H    1.129494634  -5.291612838   3.219746744
  H    3.150211343  -7.765559231  -9.066557653
  H   -1.938277894   1.495428909  -5.667505395

