%mem=64gb
%nproc=28       
%Chk=snap_174.chk
# opt b3lyp/6-31g(d,p)  scf=(xqc, tight)  pop=min    

tetra snap_174 

2     1 
  O    3.367213775  -4.202522964  -4.419579488
  C    3.738872799  -2.973092263  -5.054487755
  H    4.701863985  -3.229698131  -5.550301197
  H    3.922977119  -2.217285059  -4.263505339
  C    2.716982874  -2.462886785  -6.073028604
  H    2.951106125  -1.414759837  -6.394364317
  O    2.848506771  -3.219610338  -7.313035597
  C    1.662076855  -3.940426327  -7.615210518
  H    1.451762310  -3.745243192  -8.698584388
  C    1.243976008  -2.584572162  -5.622062141
  H    1.149722989  -2.940880890  -4.565170965
  C    0.570557226  -3.532504084  -6.623800706
  H   -0.282883225  -3.040449854  -7.140275352
  H    0.115955210  -4.399210960  -6.090105209
  O    0.737378419  -1.234880595  -5.752557905
  N    2.008208371  -5.402358243  -7.487638513
  C    1.740378115  -6.394108655  -8.449568422
  C    2.252352721  -7.618847731  -7.928082577
  N    2.836125625  -7.342627042  -6.676102343
  C    2.685151115  -6.024010863  -6.418743537
  N    1.110165542  -6.246992450  -9.656871990
  C    0.984145949  -7.403200683 -10.383994332
  N    1.448938607  -8.663375954  -9.930213163
  C    2.128403459  -8.850849446  -8.659622811
  N    0.357263456  -7.327967024 -11.600986286
  H    0.051938793  -6.422156668 -11.952434252
  H    0.277825031  -8.115315921 -12.228316656
  O    2.487028990  -9.975781675  -8.387187463
  H    3.048438201  -5.445716474  -5.501077793
  H    1.315747227  -9.511070799 -10.501082353
  P   -0.602310546  -0.899521923  -4.859965009
  O   -0.962353283   0.578731346  -5.517121441
  C   -0.338712126   1.742393870  -4.919066596
  H   -0.105962188   2.383706694  -5.802730902
  H    0.607963588   1.483051161  -4.400012833
  C   -1.314261042   2.437887158  -3.973836909
  H   -0.755818355   3.003292519  -3.185874777
  O   -2.047454629   3.445020072  -4.751939901
  C   -3.377281035   3.604014044  -4.224467218
  H   -3.478745313   4.683777966  -3.953493822
  C   -2.436531162   1.572745549  -3.347473384
  H   -2.817391217   0.797883730  -4.064476384
  C   -3.547346671   2.599544468  -3.076134717
  H   -3.414462534   3.070443106  -2.078170486
  H   -4.557501648   2.136889602  -3.034043965
  O   -1.917804319   1.007294999  -2.146289390
  O   -0.277045692  -0.902881822  -3.399739490
  O   -1.682449573  -1.773268788  -5.663623685
  N   -4.328486527   3.328924479  -5.348945992
  C   -4.366413802   2.256292102  -6.233417280
  C   -5.601588039   2.352475208  -6.959212408
  N   -6.312679369   3.480101806  -6.522277536
  C   -5.567132363   4.047421479  -5.576249404
  N   -3.469507870   1.224620903  -6.498213955
  C   -3.854159543   0.279808394  -7.455113883
  N   -5.010126611   0.294280468  -8.105753788
  C   -5.933398126   1.345208951  -7.916467974
  H   -3.134174213  -0.547827987  -7.656322769
  N   -7.062006953   1.333876146  -8.649619586
  H   -7.255151706   0.589387962  -9.316157268
  H   -7.757124966   2.073638057  -8.552473050
  H   -5.808678763   4.949924858  -5.020262072
  P   -2.149265248  -0.643348607  -2.063715293
  O   -1.008770569  -1.115385772  -1.011450588
  C   -0.440550019  -2.430225043  -1.212454459
  H    0.198848401  -2.435370716  -2.119811236
  H    0.221640589  -2.519050665  -0.321948589
  C   -1.553481580  -3.481974079  -1.204805999
  H   -1.537868064  -4.088931510  -0.266839356
  O   -2.804905679  -2.727874459  -1.208081009
  C   -3.885172061  -3.599473068  -1.734747522
  H   -4.437351341  -3.937551547  -0.822105862
  C   -1.690597314  -4.399692665  -2.445742534
  H   -1.336204754  -3.944033656  -3.399518379
  C   -3.188653777  -4.736743047  -2.485218283
  H   -3.552465508  -4.872838288  -3.528902099
  H   -3.367879130  -5.722787140  -1.998695523
  O   -1.017189933  -5.647994425  -2.151802874
  O   -2.516345033  -1.161999849  -3.448700619
  O   -3.468818285  -0.530253893  -1.080113079
  N   -4.771237625  -2.715703942  -2.529196738
  C   -4.441097850  -2.375979579  -3.876378438
  N   -5.045870951  -1.217422404  -4.416055538
  C   -5.813053707  -0.271064183  -3.652913784
  C   -6.215630420  -0.753073583  -2.325437916
  C   -5.659570189  -1.870099900  -1.796536907
  O   -3.754093911  -3.098827425  -4.598889212
  H   -4.757640171  -0.949215315  -5.360417591
  O   -6.011550941   0.807490680  -4.176978133
  C   -7.211060994   0.072512225  -1.589067985
  H   -6.716893545   0.784656523  -0.907704550
  H   -7.836361930   0.673236402  -2.271948958
  H   -7.904203620  -0.534077612  -0.987270827
  H   -5.882524018  -2.199165696  -0.772707998
  P    0.511319612  -5.744159716  -2.718722100
  O    1.375607636  -5.155138168  -1.448266050
  C    2.790119777  -5.465194221  -1.427137638
  H    3.214624664  -5.681154781  -2.434952367
  H    3.229891874  -4.512462666  -1.053657200
  C    3.028296557  -6.602656362  -0.432238593
  H    2.374136993  -6.513347400   0.474491902
  O    2.617254511  -7.875210782  -1.021837452
  C    3.690627353  -8.842068772  -0.974459115
  H    3.356599283  -9.595760486  -0.216661487
  C    4.524659827  -6.738196120  -0.048307249
  H    5.163037904  -5.904328294  -0.410308427
  C    4.977948298  -8.101587046  -0.598297220
  H    5.658960434  -7.977956431  -1.465090058
  H    5.559485841  -8.662759465   0.160110506
  O    4.496108843  -6.731605595   1.378791568
  O    0.779905791  -4.899602330  -3.923907490
  O    0.719267645  -7.330441132  -2.845979823
  N    3.740797493  -9.481623311  -2.326157273
  C    3.653497661  -8.686322916  -3.544693541
  N    3.640732330  -9.338714341  -4.760950910
  C    3.755995308 -10.705125317  -4.834922699
  C    3.918077549 -11.493627156  -3.633373911
  C    3.891070687 -10.869855835  -2.419662158
  O    3.544025716  -7.471043700  -3.449356144
  N    3.708822397 -11.263105317  -6.073164774
  H    3.770024121 -12.260737872  -6.217323197
  H    3.526055857 -10.689921636  -6.902411660
  H    2.425079350  -4.165511874  -4.047403272
  H    3.993074022 -11.435364463  -1.481089025
  H    4.053845238 -12.573808315  -3.702922045
  H    5.396994292  -6.653313185   1.763615367
  H   -2.510055434  -2.151778471  -5.133588590
  H   -3.343394366  -0.828223304  -0.134956349
  H    1.653950183  -7.692283547  -2.553662198
  H    3.263284725  -8.071667227  -6.044829065
  H   -2.522492643   1.207182284  -6.053381540

