%mem=64gb
%nproc=28       
%Chk=snap_3.chk
# opt b3lyp/6-31g(d,p)  scf=(xqc, tight)  pop=min    

tetra snap_3 

2     1 
  O    1.550308283  -5.077180082  -7.764925204
  C    2.001920968  -3.735402868  -8.007535915
  H    2.916519871  -3.874730486  -8.624906152
  H    2.274381555  -3.271129858  -7.033443290
  C    0.975062754  -2.872465889  -8.745791346
  H    1.243559692  -1.788565239  -8.657652645
  O    1.111570532  -3.112870549 -10.184051929
  C   -0.104928152  -3.561026868 -10.754601803
  H   -0.188241094  -3.057045864 -11.751359089
  C   -0.515968850  -3.123309453  -8.396303918
  H   -0.683403811  -3.997963858  -7.714999318
  C   -1.225507160  -3.297392743  -9.745504522
  H   -1.780587108  -2.361078778  -9.993638255
  H   -2.001475495  -4.085295885  -9.721980151
  O   -1.086341678  -1.912074830  -7.827849888
  N    0.057053234  -5.040462278 -11.006069075
  C   -0.177783371  -5.701577481 -12.231826257
  C    0.172940778  -7.065772557 -12.029361479
  N    0.630658509  -7.200507999 -10.702535275
  C    0.564191483  -5.986638155 -10.103222421
  N   -0.652734766  -5.158469221 -13.390971956
  C   -0.762631476  -6.050436182 -14.436067423
  N   -0.440510288  -7.420004720 -14.322344020
  C    0.057685422  -8.037342774 -13.091930670
  N   -1.216149770  -5.561356046 -15.632439384
  H   -1.424942819  -4.569138294 -15.724228848
  H   -1.307475900  -6.129657241 -16.462289597
  O    0.300478524  -9.214247022 -13.113073276
  H    0.903898118  -5.700153792  -9.018853578
  H   -0.541943383  -8.054708778 -15.129856064
  P   -0.823645402  -1.795730001  -6.210551461
  O   -1.216257913  -0.203887511  -6.008346528
  C   -0.597081756   0.429203846  -4.859782292
  H   -0.159805996   1.362345327  -5.286821135
  H    0.223038885  -0.183585171  -4.422437426
  C   -1.655354832   0.783018752  -3.810054789
  H   -1.202401600   0.818917809  -2.781705714
  O   -2.027646308   2.184283944  -4.016069430
  C   -3.393401785   2.313644209  -4.378091659
  H   -3.771841161   3.187380775  -3.797895720
  C   -2.970741304  -0.039172859  -3.843935947
  H   -2.983537791  -0.859045906  -4.604105682
  C   -4.092603284   0.987366704  -4.084489940
  H   -4.713328565   1.057346953  -3.154276219
  H   -4.804625412   0.657243794  -4.862083435
  O   -3.276310186  -0.580205045  -2.549912284
  O    0.522443068  -2.226053237  -5.764666938
  O   -2.119239065  -2.523953000  -5.578941369
  N   -3.424677174   2.660468508  -5.842122723
  C   -3.586844705   3.922492957  -6.408859622
  C   -3.471746281   3.757444516  -7.829102647
  N   -3.197232976   2.412584635  -8.123516755
  C   -3.153514824   1.776760040  -6.953307426
  N   -3.836100193   5.179179909  -5.854164093
  C   -3.960313502   6.250520157  -6.762127687
  N   -3.873420106   6.135606747  -8.075346680
  C   -3.627604860   4.888739661  -8.689715224
  H   -4.149758473   7.260005489  -6.330771897
  N   -3.559821543   4.851139117 -10.030875213
  H   -3.677264853   5.695785498 -10.591771814
  H   -3.388079395   3.976123178 -10.524599951
  H   -2.920975506   0.719181464  -6.792377947
  P   -2.338306861  -1.828449694  -1.994192596
  O   -1.385640795  -0.857601603  -1.076768521
  C   -0.151221112  -1.413826054  -0.570340361
  H    0.509302722  -1.710448385  -1.419260597
  H    0.295370148  -0.556638498  -0.023898364
  C   -0.513857089  -2.579405034   0.348251223
  H   -1.057559858  -2.264016657   1.273744211
  O   -1.506552968  -3.337827201  -0.421105289
  C   -1.064920412  -4.723335389  -0.645874985
  H   -1.949855369  -5.314090532  -0.291341855
  C    0.645963790  -3.539883511   0.681565980
  H    1.627887799  -3.204880637   0.270655359
  C    0.207467173  -4.917387262   0.170589209
  H    1.018739008  -5.405727040  -0.410900677
  H    0.026705152  -5.611431660   1.025130328
  O    0.669431390  -3.534844821   2.127712198
  O   -1.633323885  -2.548488745  -3.096973531
  O   -3.545715927  -2.554875722  -1.201296132
  N   -0.875362307  -4.930378961  -2.101436590
  C    0.182464071  -4.273206041  -2.808938023
  N    0.227527447  -4.501329542  -4.208050493
  C   -0.693041907  -5.317545744  -4.921973676
  C   -1.699180917  -5.997529423  -4.118225641
  C   -1.761801192  -5.802151403  -2.772978818
  O    1.028054180  -3.592396890  -2.254721611
  H    0.885348944  -3.886627665  -4.742857728
  O   -0.568165388  -5.361968868  -6.149205139
  C   -2.628261301  -6.930488169  -4.816393408
  H   -3.681947994  -6.678630115  -4.630102384
  H   -2.482115041  -6.913837259  -5.908145693
  H   -2.468773062  -7.971453060  -4.487389178
  H   -2.488659328  -6.339047918  -2.137937721
  P    2.008255777  -4.139397401   2.863635420
  O    2.208706942  -5.511443793   1.972688090
  C    3.271498345  -6.397828753   2.429665633
  H    4.122519403  -5.822437649   2.846566179
  H    2.835487909  -7.054993279   3.212704431
  C    3.732550672  -7.219644896   1.222390258
  H    4.792375715  -7.563020108   1.360429285
  O    2.982081576  -8.468022304   1.189828593
  C    2.198158653  -8.580724335  -0.006405895
  H    2.292591778  -9.649666697  -0.316807955
  C    3.551809821  -6.546327139  -0.159222219
  H    3.075923313  -5.545583850  -0.101628552
  C    2.750642679  -7.556713630  -0.998970506
  H    1.975093432  -7.087308095  -1.635895249
  H    3.427102670  -8.062187224  -1.723821285
  O    4.885468014  -6.415597795  -0.657870686
  O    1.966442533  -4.212008941   4.317665149
  O    3.190839687  -3.209173646   2.187219026
  N    0.760360602  -8.340308872   0.409558392
  C   -0.276649361  -7.975239735  -0.567059678
  N   -1.561017653  -7.742281992  -0.092873503
  C   -1.862710215  -7.939823481   1.223513180
  C   -0.867100108  -8.339192145   2.176448105
  C    0.420150012  -8.530708824   1.741319263
  O    0.047940714  -7.844719660  -1.732933662
  N   -3.155578093  -7.650874967   1.609293390
  H   -3.487354510  -7.924486946   2.523093745
  H   -3.867322731  -7.513602579   0.902869502
  H    0.898538810  -5.091338701  -6.976005527
  H    1.227205263  -8.839524926   2.430163950
  H   -1.125328713  -8.491582830   3.222211843
  H    4.927272318  -5.785075029  -1.406303655
  H   -1.984542994  -2.953029605  -4.616479699
  H   -3.371378029  -2.899140003  -0.265588246
  H    3.730371293  -2.625483179   2.780542622
  H    0.952607469  -8.077147086 -10.303024887
  H   -3.873901906   5.322044129  -4.842309947

