%mem=64gb
%nproc=28       
%Chk=snap_85.chk
# opt b3lyp/6-31g(d,p)  scf=(xqc, tight)  pop=min    

tetra snap_85 

2     1 
  O    3.341137119  -4.717080215  -6.338527414
  C    3.458033506  -3.370824018  -6.800588989
  H    4.164680841  -3.391001251  -7.660660917
  H    3.950399875  -2.839737194  -5.956239561
  C    2.153963524  -2.688154451  -7.203452607
  H    2.291610034  -1.578853838  -7.277924353
  O    1.877309295  -3.093559501  -8.589986151
  C    0.597813489  -3.684361410  -8.709711977
  H    0.164308063  -3.315632969  -9.672304758
  C    0.882035453  -3.014957871  -6.383681599
  H    1.047321326  -3.825582146  -5.620082934
  C   -0.181382276  -3.390978303  -7.428556363
  H   -0.908070787  -2.564935985  -7.580867114
  H   -0.821876341  -4.233607100  -7.084245760
  O    0.541277704  -1.770163751  -5.741887974
  N    0.818762949  -5.177955432  -8.872963957
  C   -0.213178524  -6.139618437  -8.833709378
  C    0.415094851  -7.419026665  -8.834811474
  N    1.800290192  -7.213989783  -8.875891015
  C    2.036219754  -5.870817626  -8.904966102
  N   -1.553652870  -5.898616725  -8.819859170
  C   -2.340566296  -7.022221189  -8.740651469
  N   -1.801503919  -8.328461263  -8.651373011
  C   -0.377237095  -8.618419916  -8.668221950
  N   -3.706153640  -6.865452598  -8.861752891
  H   -4.067388127  -5.914306369  -8.723416190
  H   -4.329041708  -7.582989798  -8.505423823
  O   -0.040660106  -9.773822477  -8.555022889
  H    3.013402402  -5.377391715  -8.965064876
  H   -2.427273785  -9.142029088  -8.571033465
  P   -0.451467393  -1.868963787  -4.412159491
  O   -0.758757631  -0.236463434  -4.418079420
  C   -0.213992978   0.514212202  -3.301739596
  H    0.508305611   1.228018877  -3.762283674
  H    0.330038586  -0.132960883  -2.579826641
  C   -1.368315522   1.262260475  -2.631348126
  H   -1.246483791   1.284446605  -1.516244747
  O   -1.240284200   2.657882489  -3.041477170
  C   -2.518892233   3.230417484  -3.338064675
  H   -2.624789058   4.117492490  -2.661439443
  C   -2.804604368   0.825257389  -3.034124949
  H   -2.842774696   0.222263799  -3.972775363
  C   -3.581275984   2.143100782  -3.161953267
  H   -4.179758347   2.303959369  -2.229957297
  H   -4.340489283   2.119084619  -3.964912597
  O   -3.426459756   0.098646183  -1.967997215
  O    0.242789435  -2.384723939  -3.213595591
  O   -1.688115563  -2.589171631  -5.178198403
  N   -2.430200779   3.741477174  -4.741148539
  C   -1.988136923   3.100597628  -5.895339186
  C   -2.004500015   4.079991347  -6.943855021
  N   -2.444506610   5.310131805  -6.432583183
  C   -2.682331693   5.113404295  -5.138779407
  N   -1.590449371   1.792338965  -6.158374326
  C   -1.153495216   1.518687279  -7.464401589
  N   -1.151188615   2.389883839  -8.462419965
  C   -1.577678812   3.721198871  -8.261965273
  H   -0.794275330   0.482784384  -7.656353067
  N   -1.554735476   4.564141754  -9.307195904
  H   -1.231433847   4.266252819 -10.226955010
  H   -1.849862176   5.536875475  -9.204430236
  H   -3.033026331   5.857462015  -4.424960317
  P   -2.913574368  -1.473129765  -1.792716051
  O   -1.916362289  -1.176730937  -0.547719689
  C   -0.876396124  -2.165719660  -0.295351222
  H   -0.234798013  -2.289638780  -1.195281334
  H   -0.281130405  -1.684835748   0.516046660
  C   -1.565731471  -3.444610318   0.158656426
  H   -1.949742145  -3.384598863   1.204193892
  O   -2.766203606  -3.523906566  -0.694007816
  C   -3.006591511  -4.907507273  -1.117975274
  H   -4.055666952  -5.093705409  -0.773503075
  C   -0.810097919  -4.767582770  -0.112440305
  H   -0.102836616  -4.671652231  -0.984447102
  C   -1.949665820  -5.757798634  -0.424466166
  H   -1.594238600  -6.628563240  -1.009451253
  H   -2.328915760  -6.199850770   0.527008840
  O   -0.166171407  -5.266877612   1.046144538
  O   -2.302459785  -1.957319684  -3.078537426
  O   -4.368319046  -2.092842508  -1.419895504
  N   -2.981913702  -4.952008884  -2.609015153
  C   -1.857413392  -5.432941275  -3.357674551
  N   -2.089511425  -5.689211087  -4.730807322
  C   -3.341458374  -5.494453868  -5.397280309
  C   -4.353471722  -4.782207849  -4.603204060
  C   -4.166081036  -4.556721931  -3.280237613
  O   -0.766360871  -5.647994416  -2.863959923
  H   -1.296966317  -6.093230279  -5.272323975
  O   -3.452687731  -5.922022574  -6.529908746
  C   -5.598307700  -4.380039120  -5.313253132
  H   -6.053816293  -3.470241232  -4.896879189
  H   -5.418757053  -4.189645389  -6.383332560
  H   -6.359810439  -5.178140302  -5.260094516
  H   -4.926436393  -4.050604590  -2.659943698
  P    1.310941764  -4.628226132   1.499429339
  O    2.431155567  -5.659207100   0.885821592
  C    2.234525877  -6.388641710  -0.333489796
  H    2.795786898  -7.334032851  -0.132735506
  H    1.179723438  -6.646407332  -0.524682001
  C    2.918610166  -5.606056983  -1.462413247
  H    3.868761806  -5.134796815  -1.098811175
  O    3.349432025  -6.591032409  -2.453937343
  C    2.912765135  -6.238134660  -3.774130535
  H    3.812607631  -6.362383162  -4.428472177
  C    2.040549076  -4.591280649  -2.220204890
  H    0.940167018  -4.671711710  -2.000424659
  C    2.340167169  -4.826746229  -3.700021925
  H    1.437571584  -4.679536762  -4.336349323
  H    3.096217341  -4.096038837  -4.065953752
  O    2.492096915  -3.283176879  -1.810666187
  O    1.425623877  -4.383467901   2.921954721
  O    1.331505747  -3.346835078   0.476515413
  N    1.897410327  -7.290897112  -4.186101383
  C    1.015675056  -7.112922474  -5.326865688
  N    0.277661305  -8.182391870  -5.781561939
  C    0.335134218  -9.390878922  -5.126771973
  C    1.100241915  -9.544004441  -3.919325360
  C    1.879952466  -8.500828154  -3.495874337
  O    0.952227921  -6.008198290  -5.880382569
  N   -0.381640303 -10.425966048  -5.666961189
  H   -0.283253697 -11.365041092  -5.304469370
  H   -0.723999789 -10.350719530  -6.622037106
  H    2.492294093  -5.147226664  -6.596957523
  H    2.536212944  -8.579335319  -2.608608030
  H    1.079014468 -10.481689187  -3.364020907
  H    1.897416482  -2.603659587  -2.257506982
  H   -2.476260898  -2.877036477  -4.571913670
  H   -4.550952218  -2.279189755  -0.443328678
  H    2.117262002  -3.218957165  -0.190044477
  H    2.486885613  -7.962959313  -8.891911050
  H   -1.508756189   1.079725504  -5.403784894

