%mem=64gb
%nproc=28       
%Chk=snap_8.chk
# opt b3lyp/6-31g(d,p)  scf=(xqc, tight)  pop=min    

tetra snap_8 

2     1 
  O    1.220719826  -5.825942704  -7.158680363
  C    1.954841938  -4.591672359  -7.250167473
  H    2.926455924  -4.907099960  -7.690655476
  H    2.118731501  -4.204086130  -6.218769610
  C    1.273692842  -3.536483762  -8.123609715
  H    1.758810389  -2.536634354  -7.979656097
  O    1.552120526  -3.830702324  -9.530458168
  C    0.355866762  -3.966676975 -10.280844646
  H    0.541598054  -3.463364095 -11.264074163
  C   -0.268915150  -3.442996971  -7.993432262
  H   -0.718469767  -4.284338844  -7.404104367
  C   -0.798260840  -3.424497329  -9.432711024
  H   -1.058979751  -2.379652568  -9.723803126
  H   -1.741558629  -3.992625219  -9.544523070
  O   -0.609620510  -2.151090518  -7.424173535
  N    0.188449755  -5.442727658 -10.550624813
  C   -0.102048483  -6.028369485 -11.803045282
  C   -0.082048842  -7.437380435 -11.605954134
  N    0.235983717  -7.678644987 -10.253453320
  C    0.399367400  -6.484234614  -9.635020961
  N   -0.355482844  -5.387675069 -12.982105078
  C   -0.585339011  -6.227296155 -14.050475740
  N   -0.585949836  -7.634613655 -13.943175877
  C   -0.334604156  -8.353542090 -12.693305828
  N   -0.835637476  -5.645131096 -15.265138749
  H   -0.817037255  -4.631154545 -15.351213556
  H   -0.973789300  -6.176077508 -16.113069798
  O   -0.367776512  -9.554636545 -12.719735611
  H    0.704695101  -6.286770006  -8.516684955
  H   -0.765621557  -8.226186821 -14.768846143
  P   -0.712438806  -2.205728620  -5.783213780
  O   -0.705632393  -0.592112338  -5.452622850
  C   -0.181205908  -0.222139539  -4.149924031
  H    0.657845950   0.475314059  -4.384418214
  H    0.222781151  -1.091319260  -3.583671101
  C   -1.273814792   0.505067462  -3.362658410
  H   -1.076879524   0.439159929  -2.258928154
  O   -1.112436860   1.939060641  -3.619079767
  C   -2.312153569   2.528800039  -4.091775174
  H   -2.448924300   3.448998761  -3.476719858
  C   -2.743591788   0.149423199  -3.712237169
  H   -2.845712310  -0.566662134  -4.560882917
  C   -3.433645724   1.493907984  -4.005669373
  H   -4.140743656   1.720815067  -3.168934119
  H   -4.071590252   1.441474383  -4.907495736
  O   -3.439756986  -0.343801958  -2.559415286
  O    0.344382138  -3.020091831  -5.130587422
  O   -2.252011834  -2.635132272  -5.584847557
  N   -2.057446732   2.940314629  -5.517747993
  C   -2.267189597   4.191139908  -6.090262108
  C   -1.855150078   4.091404089  -7.460559150
  N   -1.385162637   2.794142880  -7.715767510
  C   -1.502196469   2.122375386  -6.570250081
  N   -2.790767260   5.384022314  -5.586525156
  C   -2.884909629   6.458167622  -6.495443188
  N   -2.515632594   6.404965963  -7.762773687
  C   -1.970628569   5.228159756  -8.321035678
  H   -3.307479122   7.412236614  -6.104940400
  N   -1.603404988   5.252168994  -9.612684574
  H   -1.709300217   6.094304543 -10.179433324
  H   -1.199268483   4.429264897 -10.059779154
  H   -1.221744909   1.076171668  -6.389300326
  P   -3.066266616  -1.868776844  -2.024561814
  O   -2.261521009  -1.367731862  -0.697816436
  C   -1.313353501  -2.298991005  -0.117382980
  H   -0.506876349  -2.522538862  -0.850654080
  H   -0.889908940  -1.718438331   0.732659773
  C   -2.080917577  -3.529513676   0.353468196
  H   -2.660838767  -3.352796900   1.289037457
  O   -3.106505595  -3.762678056  -0.680808284
  C   -3.112926821  -5.173727288  -1.089844945
  H   -4.193358039  -5.447197148  -1.023294381
  C   -1.251023181  -4.831847892   0.427522532
  H   -0.294376904  -4.790175823  -0.177918539
  C   -2.185780219  -5.907841084  -0.132171103
  H   -1.596824704  -6.739062935  -0.612785673
  H   -2.722386350  -6.423430111   0.693012704
  O   -1.023670404  -5.118791417   1.819831321
  O   -2.284803448  -2.598124662  -3.074207531
  O   -4.590924568  -2.321206712  -1.722878457
  N   -2.670444097  -5.258822492  -2.514589814
  C   -1.362729681  -4.833644787  -2.906256124
  N   -0.959794426  -5.170444016  -4.226003418
  C   -1.805131127  -5.759346148  -5.199935937
  C   -3.157151171  -6.088298318  -4.744395064
  C   -3.540646759  -5.835635846  -3.464711252
  O   -0.597318565  -4.224411113  -2.183485005
  H   -0.021952232  -4.798524731  -4.507343297
  O   -1.337065700  -5.907583150  -6.329471089
  C   -4.064847217  -6.697737129  -5.754032155
  H   -5.049953044  -6.965679472  -5.349446155
  H   -4.230900997  -6.013800434  -6.602200245
  H   -3.628905602  -7.622321679  -6.169781730
  H   -4.553253942  -6.074638332  -3.109773102
  P    0.477797227  -4.804969241   2.403289514
  O    1.266692168  -4.455951209   1.010823859
  C    2.712720228  -4.308817788   1.016179293
  H    2.936362385  -3.302406835   1.419048402
  H    3.186161323  -5.099278670   1.636860297
  C    3.164987103  -4.447463106  -0.450264300
  H    3.896185665  -3.655061144  -0.731210148
  O    3.928793166  -5.686708092  -0.531532404
  C    3.204737144  -6.672531298  -1.308108215
  H    3.996016349  -7.319113840  -1.750255302
  C    2.030789941  -4.579588746  -1.498023018
  H    1.016971312  -4.658802467  -1.021648308
  C    2.379550003  -5.853943859  -2.294807265
  H    1.476837108  -6.380844620  -2.667712956
  H    2.981170810  -5.595541640  -3.188393365
  O    2.059180691  -3.423618334  -2.336620569
  O    1.033641982  -5.763409128   3.359496462
  O    0.252718717  -3.272569023   2.964954029
  N    2.407813413  -7.463448446  -0.308487211
  C    0.940006956  -7.514920969  -0.274239133
  N    0.327639274  -7.838098611   0.922199603
  C    1.055330359  -8.234419273   2.005189988
  C    2.496942201  -8.327339268   1.944132411
  C    3.128447075  -7.904561281   0.812700557
  O    0.304411401  -7.236715524  -1.282237996
  N    0.359699185  -8.591430879   3.137775471
  H    0.830627113  -8.558071808   4.033683153
  H   -0.633641876  -8.387380529   3.173934091
  H    0.382757346  -5.706319860  -6.593916526
  H    4.226836079  -7.880266988   0.738561526
  H    3.055585903  -8.708710016   2.796724424
  H    1.219872131  -3.410672465  -2.866514859
  H   -2.554218671  -2.879494502  -4.592086142
  H   -4.802569076  -2.671868856  -0.798177131
  H    0.371097562  -3.104685636   3.935893399
  H    0.322701872  -8.607500787  -9.851370084
  H   -3.061724086   5.480378938  -4.605419736

