%mem=64gb
%nproc=28       
%Chk=snap_176.chk
# opt b3lyp/6-31g(d,p)  scf=(xqc, tight)  pop=min    

tetra snap_176 

2     1 
  O    3.059267096  -4.027764228  -4.627461079
  C    3.417263399  -2.797262437  -5.266396590
  H    4.469633305  -2.973773322  -5.581744569
  H    3.383872050  -1.988364512  -4.509481917
  C    2.530931601  -2.460708321  -6.466308453
  H    2.678430970  -1.403414433  -6.800196137
  O    2.981290883  -3.250307814  -7.613700754
  C    1.919045540  -4.008854768  -8.167230073
  H    2.023843354  -3.922290819  -9.279462758
  C    1.028908679  -2.782249797  -6.275276372
  H    0.848896429  -3.403435299  -5.353206302
  C    0.605222072  -3.521363194  -7.552274933
  H    0.074724897  -2.823306369  -8.238000214
  H   -0.120783506  -4.331199150  -7.345485734
  O    0.355453695  -1.509509423  -6.236221050
  N    2.173781956  -5.454472420  -7.807359139
  C    1.939053545  -6.540832565  -8.668359966
  C    2.285856044  -7.721744857  -7.948391517
  N    2.726809813  -7.327512628  -6.667477749
  C    2.654130102  -5.978206211  -6.590016041
  N    1.468295923  -6.492050797  -9.953905003
  C    1.354267645  -7.710978460 -10.570278820
  N    1.682783196  -8.933314683  -9.932939691
  C    2.166575163  -9.015705184  -8.564930071
  N    0.873356797  -7.737369421 -11.853899255
  H    0.674110149  -6.859834752 -12.330901796
  H    0.822635237  -8.581644207 -12.405292442
  O    2.394984468 -10.127624519  -8.139485598
  H    2.934868697  -5.315154129  -5.698844215
  H    1.586997014  -9.831254428 -10.430265934
  P   -0.637494029  -1.329193950  -4.920924163
  O   -0.997505497   0.267048468  -5.171761420
  C   -0.242427722   1.322727685  -4.542607735
  H    0.105691619   1.951084965  -5.397114122
  H    0.629690162   0.932335057  -3.982062719
  C   -1.177895273   2.117289113  -3.631285866
  H   -0.601433332   2.609327514  -2.808811672
  O   -1.764347696   3.208841634  -4.417171398
  C   -3.111283205   3.469359986  -3.983232595
  H   -3.139481391   4.552541824  -3.705658562
  C   -2.411404339   1.362740726  -3.078171731
  H   -2.804705041   0.623135467  -3.826168509
  C   -3.441413326   2.478223406  -2.860541696
  H   -3.328247805   2.930451038  -1.850905062
  H   -4.492446777   2.111177742  -2.879400610
  O   -2.024045216   0.747418406  -1.849170041
  O    0.057037492  -1.811986395  -3.713009759
  O   -1.982967403  -1.898676506  -5.609176073
  N   -4.005440582   3.284761581  -5.171025709
  C   -4.134589981   2.205727587  -6.039844192
  C   -5.238373599   2.498350728  -6.909854710
  N   -5.778859083   3.749195369  -6.576279744
  C   -5.055951221   4.206555377  -5.556574194
  N   -3.429386805   1.014421452  -6.177778712
  C   -3.835277745   0.145021942  -7.197481982
  N   -4.869535668   0.358742377  -7.999706039
  C   -5.616405992   1.552632050  -7.912784002
  H   -3.247019877  -0.802041422  -7.304841844
  N   -6.636396432   1.728084129  -8.772499730
  H   -6.864628293   1.029328721  -9.476542658
  H   -7.206599752   2.573266139  -8.742278149
  H   -5.195670300   5.155350169  -5.043890421
  P   -2.316832225  -0.890578540  -1.846215479
  O   -1.228030995  -1.388439839  -0.755934301
  C   -0.643007614  -2.687482182  -1.043298620
  H    0.044581368  -2.604585530  -1.921710581
  H   -0.023963657  -2.858761861  -0.135568593
  C   -1.747198401  -3.735125091  -1.198399933
  H   -1.765847972  -4.442573769  -0.335544767
  O   -3.016679293  -3.001744174  -1.181411221
  C   -4.057740536  -3.859142681  -1.820119307
  H   -4.588984227  -4.328932347  -0.954207615
  C   -1.813218896  -4.506945152  -2.542291022
  H   -1.421509853  -3.931920285  -3.411983175
  C   -3.300495173  -4.861600118  -2.690256837
  H   -3.619727685  -4.873195069  -3.758798130
  H   -3.471608542  -5.910542958  -2.352725177
  O   -1.127245433  -5.762987728  -2.364395006
  O   -2.317605936  -1.349217655  -3.285158494
  O   -3.743093051  -0.805566505  -1.049948297
  N   -4.988164747  -2.930216103  -2.500592605
  C   -4.740986627  -2.478720901  -3.830156882
  N   -5.245295428  -1.208340656  -4.179408391
  C   -5.953009278  -0.328812043  -3.281788749
  C   -6.397785348  -0.983781387  -2.040423376
  C   -5.884782562  -2.182768918  -1.672812515
  O   -4.148663633  -3.153556148  -4.665581338
  H   -5.024137516  -0.861424605  -5.117353477
  O   -6.065714518   0.823512632  -3.642981900
  C   -7.391466043  -0.249662920  -1.212547049
  H   -8.308343485  -0.837534669  -1.042997962
  H   -6.983483386   0.022735494  -0.225716008
  H   -7.712721951   0.695101958  -1.685878402
  H   -6.149337736  -2.661963944  -0.721061610
  P    0.412658312  -5.791980000  -2.923776921
  O    1.161235180  -4.959986073  -1.714022182
  C    2.601149513  -5.092974157  -1.644191965
  H    3.064436026  -5.453636107  -2.594129120
  H    2.937046620  -4.046772679  -1.465655015
  C    2.932668576  -5.989903318  -0.449606752
  H    2.337706332  -5.727045288   0.461400261
  O    2.521475876  -7.365483004  -0.715471931
  C    3.666615740  -8.262283864  -0.749526546
  H    3.492127669  -8.948062700   0.118840732
  C    4.455837844  -6.025184892  -0.159558827
  H    5.028497920  -5.204126005  -0.640992482
  C    4.932270111  -7.414882378  -0.616347875
  H    5.490119812  -7.343616139  -1.575984090
  H    5.641146771  -7.860856793   0.108967921
  O    4.522947519  -5.879635127   1.259476776
  O    0.646374293  -5.155261982  -4.246214389
  O    0.759209875  -7.352796701  -2.785209070
  N    3.545194801  -9.019186203  -2.025621811
  C    3.628726466  -8.362660280  -3.339870428
  N    3.370664088  -9.124960942  -4.464840467
  C    3.129556868 -10.471582135  -4.371522072
  C    3.093380963 -11.133466976  -3.084902426
  C    3.281909196 -10.394301260  -1.956258223
  O    3.893128097  -7.174120743  -3.389837060
  N    2.922345692 -11.149124857  -5.531034731
  H    2.739405226 -12.141305135  -5.549285184
  H    2.929102135 -10.665737822  -6.434843383
  H    2.092264508  -4.015211197  -4.323175980
  H    3.239164077 -10.851560173  -0.955449952
  H    2.911925703 -12.207048741  -3.027055516
  H    5.442744569  -5.728586685   1.569567568
  H   -2.738751825  -2.244533860  -4.998947233
  H   -3.749919906  -1.163467426  -0.109761503
  H    1.454302749  -7.629895065  -2.053396002
  H    3.040073373  -7.991730202  -5.909516291
  H   -2.573291492   0.813685372  -5.597182021

