%mem=64gb
%nproc=28       
%Chk=snap_31.chk
# opt b3lyp/6-31g(d,p)  scf=(xqc, tight)  pop=min    

tetra snap_31 

2     1 
  O    2.305902077  -4.794250249  -8.109998695
  C    2.243141458  -3.361054245  -8.072448911
  H    3.220461286  -2.938206003  -8.379137112
  H    2.077267482  -3.125985035  -7.000043962
  C    1.107778145  -2.840823997  -8.961591035
  H    1.264787703  -1.765916288  -9.231580463
  O    1.174264511  -3.539509280 -10.245278087
  C   -0.068150066  -4.147417865 -10.573475689
  H   -0.242290450  -3.920393864 -11.657501536
  C   -0.319997829  -3.077266185  -8.406547138
  H   -0.340597113  -3.746774243  -7.513080825
  C   -1.121466759  -3.663432011  -9.578154907
  H   -1.771986956  -2.872284732 -10.018080920
  H   -1.821217474  -4.454213302  -9.239212490
  O   -0.926200481  -1.799243950  -8.124952043
  N    0.128917698  -5.641871702 -10.459916595
  C   -0.000948520  -6.573280355 -11.515457474
  C    0.256190334  -7.858164217 -10.959309393
  N    0.536403800  -7.689517253  -9.590371116
  C    0.458921161  -6.364309022  -9.302087499
  N   -0.322564031  -6.318745356 -12.816348514
  C   -0.376635263  -7.436135049 -13.623040668
  N   -0.133136900  -8.745294862 -13.152860160
  C    0.206527405  -9.055957006 -11.765489933
  N   -0.692984230  -7.242802293 -14.940334103
  H   -0.850349037  -6.297773113 -15.286667819
  H   -0.735645819  -7.994104636 -15.614435438
  O    0.394806132 -10.206037444 -11.471661960
  H    0.624531382  -5.886457713  -8.302602256
  H   -0.185872813  -9.554443972 -13.791355788
  P   -0.766281643  -1.275617754  -6.570279758
  O   -2.165070933  -0.394792212  -6.431390065
  C   -1.977343815   1.014739964  -6.200443148
  H   -2.926214550   1.449830298  -6.578520389
  H   -1.129031693   1.434562541  -6.778166725
  C   -1.801859813   1.223994415  -4.686825618
  H   -0.767491948   1.004551506  -4.316661108
  O   -1.945351679   2.647663750  -4.399742783
  C   -3.193901494   2.923605224  -3.753884908
  H   -2.929008318   3.539864178  -2.854408976
  C   -2.902490449   0.497173202  -3.875004828
  H   -3.378869337  -0.340203881  -4.445475685
  C   -3.899778510   1.600477251  -3.464861595
  H   -4.133568835   1.498037936  -2.376472543
  H   -4.863324857   1.474224664  -3.991175878
  O   -2.280320423   0.063504549  -2.659046128
  O    0.447178381  -0.501756754  -6.273899978
  O   -1.018139762  -2.630611322  -5.752164323
  N   -3.930315585   3.808937030  -4.723030792
  C   -3.313654474   4.681638055  -5.615022773
  C   -4.349985300   5.465629162  -6.216865006
  N   -5.591648905   5.069103774  -5.700092568
  C   -5.341079680   4.100450938  -4.817405114
  N   -1.971358643   4.864601437  -5.945962917
  C   -1.697773657   5.886700172  -6.870290721
  N   -2.619185766   6.647397976  -7.442079113
  C   -3.991750663   6.490961307  -7.150849851
  H   -0.629873116   6.061807345  -7.133575554
  N   -4.866074360   7.311910053  -7.753373904
  H   -4.556656252   8.039193408  -8.398521528
  H   -5.867232910   7.244570494  -7.567151125
  H   -6.078854386   3.575913314  -4.214929543
  P   -2.141097280  -1.562259674  -2.384847339
  O   -0.617130261  -1.411075001  -1.850660652
  C    0.102126335  -2.537695313  -1.300639353
  H    0.626042341  -3.033456003  -2.148391441
  H    0.848288692  -2.041369801  -0.635545755
  C   -0.820353922  -3.469976744  -0.523168402
  H   -1.213516775  -3.016838836   0.421863628
  O   -2.012162170  -3.620746604  -1.369430658
  C   -2.169028464  -5.008313068  -1.816854997
  H   -3.268174067  -5.175611204  -1.700118277
  C   -0.252303417  -4.893716114  -0.297106458
  H    0.773683832  -5.040362207  -0.718119381
  C   -1.287442041  -5.843308340  -0.908145852
  H   -0.803006817  -6.719362877  -1.418448475
  H   -1.870037152  -6.342965752  -0.090334920
  O   -0.270979838  -5.209586475   1.113764203
  O   -2.447861358  -2.357391593  -3.620922261
  O   -3.248380394  -1.626332411  -1.197241578
  N   -1.806361966  -5.104345201  -3.257090546
  C   -0.443870693  -5.196572838  -3.687527738
  N   -0.249070526  -5.488625822  -5.061758372
  C   -1.292472501  -5.570184719  -6.029732405
  C   -2.640890405  -5.305072152  -5.528481120
  C   -2.853890832  -5.063477743  -4.209386256
  O    0.508520201  -5.043942835  -2.946613122
  H    0.729558703  -5.578502451  -5.379410502
  O   -0.960380166  -5.836004413  -7.179954839
  C   -3.733936632  -5.272819744  -6.539477085
  H   -3.914693963  -4.244749371  -6.892665521
  H   -3.482735105  -5.882009648  -7.423356181
  H   -4.683912178  -5.665432881  -6.149102896
  H   -3.852183118  -4.829628113  -3.814653473
  P    0.962023719  -4.643326927   2.026281861
  O    2.245702258  -4.756520905   1.009028185
  C    3.517958850  -5.055251796   1.658091028
  H    4.078800257  -4.097039408   1.626896752
  H    3.389453030  -5.391526423   2.712122702
  C    4.224960436  -6.139997783   0.842911120
  H    5.322642740  -6.117286768   1.055516730
  O    3.828737646  -7.451186179   1.320029254
  C    2.932429678  -8.100407566   0.395202825
  H    3.309113915  -9.152010622   0.344335933
  C    3.919686689  -6.117340612  -0.677688466
  H    3.491769119  -5.149369303  -1.022683501
  C    3.000667820  -7.322915856  -0.921617530
  H    2.001230431  -6.997304134  -1.287643913
  H    3.370955597  -7.961084811  -1.747581752
  O    5.124639894  -6.198212515  -1.424901572
  O    1.100807208  -5.158149791   3.386244755
  O    0.638634699  -3.025145427   1.865017515
  N    1.578235337  -8.119072288   1.051763158
  C    0.344656715  -8.298177666   0.270228960
  N   -0.848594546  -8.414240798   0.956031463
  C   -0.875415208  -8.373131818   2.319018453
  C    0.325183248  -8.219416865   3.098601676
  C    1.521321473  -8.106967514   2.445202664
  O    0.434224662  -8.291006106  -0.948661683
  N   -2.111727994  -8.452584150   2.914277064
  H   -2.204316964  -8.535257396   3.912651128
  H   -2.932319240  -8.648824858   2.358207914
  H    2.840594065  -5.070888390  -8.894892551
  H    2.475066188  -7.990492905   2.988023145
  H    0.282703298  -8.156965558   4.184418285
  H    5.610798202  -7.036154188  -1.257375897
  H   -1.514637776  -2.614881517  -4.793554800
  H   -3.487778300  -2.528770754  -0.814479524
  H    0.704118635  -2.449728764   2.666816517
  H    0.734097974  -8.457005091  -8.954196194
  H   -1.253395275   4.262674617  -5.505197206

