%mem=64gb
%nproc=28       
%Chk=snap_142.chk
# opt b3lyp/6-31g(d,p)  scf=(xqc, tight)  pop=min    

tetra snap_142 

2     1 
  O    2.482584289  -4.201505883  -5.564788451
  C    2.596051915  -3.791282352  -6.930941672
  H    3.006896658  -4.594060973  -7.569689131
  H    3.309332441  -2.940332370  -6.907463412
  C    1.223097062  -3.331657683  -7.445139914
  H    1.298518088  -2.409960644  -8.076546470
  O    0.719059393  -4.324161244  -8.388861895
  C   -0.382674056  -5.038384435  -7.849311085
  H   -1.084629723  -5.211916100  -8.707331919
  C    0.141230551  -3.171940318  -6.350953434
  H    0.560621357  -3.235664840  -5.313721971
  C   -0.928560219  -4.239045920  -6.665639101
  H   -1.887736556  -3.747573482  -6.963890519
  H   -1.201205812  -4.847765581  -5.782277552
  O   -0.370861569  -1.839938957  -6.607690740
  N    0.171311946  -6.393265446  -7.464676720
  C    0.492138323  -7.388206395  -8.420136240
  C    1.399591443  -8.290095469  -7.786718548
  N    1.608500887  -7.845639172  -6.475594983
  C    0.900989329  -6.709224911  -6.293508433
  N    0.029357418  -7.512084546  -9.696239084
  C    0.523309190  -8.595416175 -10.389309233
  N    1.470696062  -9.501906693  -9.849106513
  C    1.984421346  -9.401066341  -8.493398896
  N    0.073620219  -8.783707317 -11.666315841
  H   -0.610656869  -8.137760776 -12.059928596
  H    0.391193743  -9.535197401 -12.262351824
  O    2.813080749 -10.205356252  -8.134429699
  H    0.876667924  -6.115366352  -5.366990554
  H    1.836012392 -10.282545781 -10.415540977
  P   -1.276824242  -1.178116600  -5.408225322
  O   -1.301690110   0.418070080  -5.861399925
  C   -0.168514696   1.211685195  -5.440825805
  H   -0.052630179   1.943300311  -6.276671759
  H    0.757715090   0.607486808  -5.376235786
  C   -0.467146774   1.946127657  -4.128515906
  H    0.374886891   1.846040580  -3.398102298
  O   -0.495572444   3.366562987  -4.478191234
  C   -1.646918147   4.015964311  -3.939454000
  H   -1.262829653   4.955184931  -3.464179448
  C   -1.825193902   1.653847762  -3.437217055
  H   -2.565845476   1.164243065  -4.127580816
  C   -2.338023520   3.032476545  -2.994760228
  H   -2.045804977   3.215470748  -1.931192005
  H   -3.441617374   3.101720614  -2.986907899
  O   -1.571292368   0.870028322  -2.268291697
  O   -0.659648206  -1.444158755  -4.070069310
  O   -2.729527638  -1.593583357  -5.993117012
  N   -2.513631054   4.422245178  -5.093957793
  C   -3.201045417   3.656639175  -6.034853489
  C   -3.861522905   4.580600300  -6.912622958
  N   -3.562709426   5.896128698  -6.528777932
  C   -2.765942970   5.800254239  -5.468037376
  N   -3.353252075   2.284121516  -6.219268592
  C   -4.164450927   1.873772357  -7.292052786
  N   -4.797428145   2.693874382  -8.117102027
  C   -4.674701741   4.091842071  -7.983666569
  H   -4.282815410   0.773004068  -7.430629510
  N   -5.321679979   4.875254684  -8.863165477
  H   -5.892010534   4.478994415  -9.608767846
  H   -5.262131333   5.891772017  -8.803578328
  H   -2.334146404   6.629557225  -4.910790704
  P   -2.108139693  -0.694159463  -2.380979735
  O   -0.897393770  -1.479295917  -1.645303350
  C   -0.744411389  -2.900528178  -1.876451301
  H   -1.214741732  -3.239668374  -2.819112407
  H    0.368326514  -3.006326208  -1.968718824
  C   -1.250645339  -3.644187153  -0.631974608
  H   -0.653650270  -3.402303499   0.281665735
  O   -2.590790234  -3.196376639  -0.277162859
  C   -3.585516265  -4.185808372  -0.603255871
  H   -4.293302127  -4.148099153   0.263173520
  C   -1.359503752  -5.171906946  -0.876443612
  H   -0.921661900  -5.485963480  -1.852604874
  C   -2.857097900  -5.516004541  -0.763045694
  H   -3.203677440  -6.111070607  -1.635170360
  H   -3.058899410  -6.176924086   0.112548913
  O   -0.595107640  -5.743735450   0.206168367
  O   -2.808777027  -0.899379564  -3.713916047
  O   -3.235359486  -0.757814268  -1.209033819
  N   -4.310189108  -3.701502960  -1.824044869
  C   -3.833302615  -3.942123020  -3.142257390
  N   -4.564638378  -3.334871137  -4.185513571
  C   -5.560493559  -2.302811824  -4.006712351
  C   -6.034888313  -2.170593909  -2.624485316
  C   -5.411017092  -2.824502868  -1.615081600
  O   -2.856371546  -4.632100570  -3.403695856
  H   -4.267045312  -3.559553919  -5.146412165
  O   -5.847805955  -1.668661255  -4.999317323
  C   -7.203034253  -1.277288809  -2.395913804
  H   -7.606600680  -0.874433985  -3.341215081
  H   -8.034647346  -1.804519606  -1.901898811
  H   -6.937083454  -0.411219606  -1.769719200
  H   -5.728578828  -2.705007418  -0.569514679
  P   -0.283461276  -7.359379480   0.071506272
  O    0.607159877  -7.403525321  -1.309623139
  C    2.023475857  -7.648275527  -1.228474478
  H    2.255952706  -8.495380690  -0.552708483
  H    2.251136413  -7.946490770  -2.273240970
  C    2.778714465  -6.376488274  -0.809349785
  H    2.650691239  -6.151795578   0.276192271
  O    4.195208890  -6.696333980  -0.933185338
  C    4.781246785  -6.007714171  -2.040950713
  H    5.813829666  -5.754409681  -1.698240463
  C    2.518034964  -5.147532519  -1.720774462
  H    1.734262364  -5.343857274  -2.490705830
  C    3.889834577  -4.807269234  -2.346084270
  H    3.789239523  -4.580770349  -3.428199015
  H    4.308128847  -3.878376573  -1.910314116
  O    1.971060865  -4.055654558  -1.003399437
  O   -1.450490316  -8.237003572   0.099481578
  O    0.859694672  -7.504606220   1.235526536
  N    4.895423552  -7.009801451  -3.170894799
  C    3.845185058  -7.234222219  -4.133648310
  N    3.949847101  -8.280256267  -5.032795897
  C    5.033654697  -9.123104664  -5.024462095
  C    6.084280136  -8.924623401  -4.054133997
  C    5.976932138  -7.904307764  -3.151267915
  O    2.848118897  -6.510401928  -4.178978642
  N    5.049810118 -10.114957387  -5.954624080
  H    5.802539745 -10.786863300  -6.010749463
  H    4.284302059 -10.221009892  -6.625431228
  H    2.695149738  -5.158334855  -5.437235550
  H    6.745140942  -7.739830400  -2.377724664
  H    6.947918601  -9.591652195  -4.038506689
  H    2.524209777  -3.781798076  -0.239387330
  H   -3.515965679  -1.600926579  -5.339172339
  H   -3.048741001  -1.441988347  -0.465214868
  H    0.573403946  -7.821136773   2.137280120
  H    2.307317579  -8.286004096  -5.812537666
  H   -2.782685099   1.584051426  -5.689566607

